geometry optimzed in LAMMPS
_audit_creation_date              2020-12-01 
_audit_creation_method            'lammps2cif' 
_symmetry_space_group_name_H-M    'P1' 
_symmetry_Int_Tables_number       1 
_symmetry_cell_setting            triclinic 
loop_ 
_symmetry_equiv_pos_as_xyz 
  x,y,z 
_cell_length_a                    57.49055573 
_cell_length_b                    57.48219072986255 
_cell_length_c                    33.54940405278135 
_cell_angle_alpha                 89.62852963270649 
_cell_angle_beta                  90.04764163491869 
_cell_angle_gamma                 89.75842029890302 
loop_ 
_atom_site_label 
_atom_site_type_symbol 
_atom_site_fract_x 
_atom_site_fract_y 
_atom_site_fract_z 
_atom_site_charge 
Fe1        Fe  0.55882242  0.72772255  0.96796549     1.65800
Fe2        Fe  0.57815322  0.67798421  0.92223928     1.73200
Fe3        Fe  0.61096157  0.70275567  0.99532577     1.54400
O4          O  0.61561523  0.73791346  0.98875827    -0.82000
O5          O  0.59017035  0.65125962  0.95872575    -0.80300
O6          O  0.58306459  0.75465892  0.96647168    -0.84500
O7          O  0.56032412  0.72660700  0.02910368    -0.79300
O8          O  0.63302266  0.69750033  0.94679606    -0.81100
O9          O  0.54495466  0.67124322  0.94159730    -0.83900
C10         C  0.57337313  0.71788499  0.05577527     0.96900
C11         C  0.60417135  0.75576093  0.97783622     1.04300
O12         O  0.58265081  0.70286890  0.96174785    -1.12800
O13         O  0.56559995  0.70002056  0.87876585    -0.75300
O14         O  0.55285159  0.73236973  0.90761096    -0.78800
O15         O  0.59235787  0.70757461  0.04761916    -0.79400
C16         C  0.55573425  0.71971609  0.87721509     0.95800
O17         O  0.53205048  0.70365683  0.97091862    -0.77400
O18         O  0.61064807  0.68275693  0.89874385    -0.82600
C19         C  0.60256309  0.64986229  0.98993107     0.98400
C20         C  0.63011707  0.68977936  0.91164365     1.04400
O21         O  0.61035654  0.66768994  0.00725482    -0.78200
C22         C  0.52917599  0.68286684  0.95906360     1.02700
Fe23       Fe  0.75308692  0.52125023  0.58339307     1.65800
Fe24       Fe  0.70276635  0.54055854  0.62338256     1.73200
Fe25       Fe  0.73139486  0.57510541  0.55853066     1.54400
O26         O  0.76560634  0.57963272  0.57342836    -0.82000
O27         O  0.67945822  0.56099369  0.59211133    -0.80300
O28         O  0.78121121  0.54450902  0.58369913    -0.84500
O29         O  0.75212467  0.52293847  0.52256169    -0.79300
O30         O  0.72230967  0.59424389  0.60952360    -0.81100
O31         O  0.69295115  0.51257472  0.58997671    -0.83900
C32         C  0.74809697  0.53845920  0.49640592     0.96900
C33         C  0.78305315  0.56650577  0.57936641     1.04300
O34         O  0.72934378  0.54574571  0.58829025    -1.12800
O35         O  0.72006234  0.51872315  0.66234111    -0.75300
O36         O  0.75694616  0.51642875  0.64433333    -0.78800
O37         O  0.74071964  0.55876367  0.50515245    -0.79400
C38         C  0.74076681  0.51224387  0.66896937     0.95800
O39         O  0.72745298  0.49518137  0.58063062    -0.77400
O40         O  0.71212820  0.56865677  0.65709048    -0.82600
C41         C  0.67909618  0.57141719  0.55883672     0.98400
C42         C  0.71713312  0.58921421  0.64570320     1.04400
O43         O  0.69743338  0.57462069  0.53883831    -0.78200
C44         C  0.70518754  0.49521751  0.57933289     1.02700
Fe45       Fe  0.55240606  0.23856441  0.47581794     1.65800
Fe46       Fe  0.57252470  0.28793463  0.43393290     1.73200
Fe47       Fe  0.60690415  0.25820828  0.49814027     1.54400
O48         O  0.59067925  0.24930783  0.55214236    -0.82000
O49         O  0.59994885  0.27715930  0.39973541    -0.80300
O50         O  0.55392767  0.24056540  0.53664622    -0.84500
O51         O  0.57454911  0.20966230  0.47744198    -0.79300
O52         O  0.60724481  0.29217480  0.51748630    -0.81100
O53         O  0.54989403  0.27097577  0.39622524    -0.83900
C54         C  0.59649527  0.20692541  0.47962176     0.96900
C55         C  0.57004813  0.24346967  0.56199127     1.04300
O56         O  0.57735669  0.26140090  0.46965366    -1.06400
O57         O  0.54475127  0.29905173  0.46718585    -0.75300
O58         O  0.52705455  0.26487166  0.47649068    -0.78800
O59         O  0.61040845  0.22385025  0.48305135    -0.79400
C60         C  0.52695187  0.28712385  0.47653626     0.95800
O61         O  0.54834014  0.23404790  0.41494187    -0.77400
O62         O  0.59417403  0.31062835  0.46399535    -0.82600
C63         C  0.62052678  0.27170082  0.41031580     0.98400
C64         C  0.60494879  0.31056138  0.49693382     1.04400
O65         O  0.62598432  0.26677576  0.44644448    -0.78200
C66         C  0.54387114  0.25014505  0.39004965     1.02700
Fe67       Fe  0.74630157  0.43994115  0.08094202     1.65800
Fe68       Fe  0.69898042  0.41941862  0.12750761     1.73200
Fe69       Fe  0.72904428  0.38378358  0.06718157     1.54400
O70         O  0.73647431  0.39834221  0.01101310    -0.82000
O71         O  0.71140223  0.39413344  0.16514111    -0.80300
O72         O  0.74207088  0.43639788  0.02081137    -0.84500
O73         O  0.77595344  0.41885316  0.07778144    -0.79300
O74         O  0.69484428  0.38160922  0.04880838    -0.81100
O75         O  0.71570414  0.44453784  0.16056809    -0.83900
C76         C  0.77992792  0.39703884  0.07883843     0.96900
C77         C  0.74000618  0.41898261  0.99802471     1.04300
O78         O  0.72503496  0.41420922  0.09168055    -1.12800
O79         O  0.68607701  0.44472506  0.09018375    -0.75300
O80         O  0.71897570  0.46442019  0.08006018    -0.78800
O81         O  0.76382777  0.38211339  0.08170746    -0.79400
C82         C  0.69678796  0.46290761  0.07889714     0.95800
O83         O  0.75246670  0.44581858  0.14105882    -0.77400
O84         O  0.67695583  0.39540332  0.10192541    -0.82600
C85         C  0.71687009  0.37321427  0.15700689     0.98400
C86         C  0.67683394  0.38370597  0.07010647     1.04400
O87         O  0.72164787  0.36654710  0.12151641    -0.78200
C88         C  0.73647951  0.45125141  0.16537048     1.02700
Fe89       Fe  0.46765374  0.23854990  0.97388905     1.65800
Fe90       Fe  0.44778621  0.28797241  0.92843536     1.73200
Fe91       Fe  0.41291685  0.25954288  0.99445364     1.54400
O92         O  0.40922803  0.22486764  0.98203660    -0.82000
O93         O  0.43016507  0.31249456  0.96204316    -0.80300
O94         O  0.44500273  0.21016906  0.97671146    -0.84500
O95         O  0.46592109  0.24225016  0.03438006    -0.79300
O96         O  0.39319135  0.26690458  0.94314703    -0.81100
O97         O  0.47810604  0.29753733  0.95608407    -0.83900
C98         C  0.45009938  0.24687790  0.05944949     0.96900
C99         C  0.42304608  0.20777222  0.97911524     1.04300
O100        O  0.44271518  0.26192375  0.96558980    -1.12800
O101        O  0.46586930  0.26799103  0.88808414    -0.75300
O102        O  0.47255446  0.23273565  0.91358450    -0.78800
O103        O  0.42941759  0.25235553  0.04900881    -0.79400
C104        C  0.47315808  0.24724018  0.88489849     0.95800
O105        O  0.49388971  0.26350558  0.97376766    -0.77400
O106        O  0.41810053  0.28042275  0.89755911    -0.82600
C107        C  0.41762545  0.31248483  0.99312317     0.98400
C108        C  0.39791236  0.27390398  0.90786667     1.04400
O109        O  0.41207370  0.29387348  0.01096828    -0.78200
C110        C  0.49512451  0.28545020  0.96875369     1.02700
Fe111      Fe  0.26996090  0.44088942  0.57952935     1.65800
Fe112      Fe  0.31989848  0.42131267  0.62444483     1.73200
Fe113      Fe  0.29419557  0.38822726  0.55307588     1.54400
O114        O  0.25908449  0.38388036  0.56071757    -0.82000
O115        O  0.34577312  0.40731761  0.58961094    -0.80300
O116        O  0.24276822  0.41701411  0.58072213    -0.84500
O117        O  0.27089775  0.43938070  0.51844212    -0.79300
O118        O  0.29964715  0.36668285  0.60270498    -0.81100
O119        O  0.32781853  0.45362810  0.60145082    -0.83900
C120        C  0.27865013  0.42579113  0.49192670     0.96900
C121        C  0.24143722  0.39570445  0.57097839     1.04300
O122        O  0.29463522  0.41680488  0.58562808    -1.12800
O123        O  0.29894334  0.43571053  0.66691081    -0.75300
O124        O  0.26522716  0.44622106  0.63992104    -0.78800
O125        O  0.28880825  0.40663995  0.50017422    -0.79400
C126        C  0.27876304  0.44430171  0.66955673     0.95800
O127        O  0.29435965  0.46758148  0.57693017    -0.77400
O128        O  0.31371669  0.38957166  0.65061070    -0.82600
C129        C  0.34714502  0.39487368  0.55875377     0.98400
C130        C  0.30670608  0.36996783  0.63827935     1.04400
O131        O  0.32926549  0.38798993  0.54032365    -0.78200
C132        C  0.31584885  0.46985485  0.58550276     1.02700
Fe133      Fe  0.47007691  0.72327678  0.46686132     1.65800
Fe134      Fe  0.45141693  0.67207994  0.43104307     1.73200
Fe135      Fe  0.41732779  0.70164390  0.49566374     1.54400
O136        O  0.43520713  0.71250559  0.54706542    -0.82000
O137        O  0.42161282  0.67907992  0.39986736    -0.80300
O138        O  0.47149532  0.72045506  0.52736528    -0.84500
O139        O  0.44665906  0.75109757  0.47134101    -0.79300
O140        O  0.41880006  0.66819455  0.51796433    -0.81100
O141        O  0.46998409  0.69043945  0.38853223    -0.83900
C142        C  0.42463765  0.75279075  0.47344047     0.96900
C143        C  0.45643093  0.71747384  0.55452166     1.04300
O144        O  0.44612635  0.69908458  0.46473269    -1.12800
O145        O  0.48149377  0.66392291  0.46070875    -0.75300
O146        O  0.49742426  0.69910004  0.46416985    -0.78800
O147        O  0.41159375  0.73523706  0.47723839    -0.79400
C148        C  0.49894527  0.67697080  0.46610957     0.95800
O149        O  0.47059924  0.72763171  0.40572495    -0.77400
O150        O  0.43385688  0.64877780  0.46725213    -0.82600
C151        C  0.40125390  0.68417873  0.41175698     0.98400
C152        C  0.42316574  0.64930162  0.50025966     1.04400
O153        O  0.39687584  0.69078163  0.44731600    -0.78200
C154        C  0.47425344  0.71161794  0.38060836     1.02700
Fe155      Fe  0.27641006  0.52762147  0.07853358     1.65800
Fe156      Fe  0.32675407  0.54805068  0.11502710     1.73200
Fe157      Fe  0.29681468  0.58127279  0.04957593     1.54400
O158        O  0.28799317  0.56360655  0.99729670    -0.82000
O159        O  0.31665609  0.57616050  0.14765369    -0.80300
O160        O  0.27646232  0.52841002  0.01764662    -0.84500
O161        O  0.24791709  0.55040193  0.07934299    -0.79300
O162        O  0.33082197  0.58173749  0.02965995    -0.81100
O163        O  0.31073432  0.52671684  0.15544866    -0.83900
C164        C  0.24555246  0.57216510  0.07300613     0.96900
C165        C  0.28056017  0.54314120  0.99023964     1.04300
O166        O  0.29975429  0.55241560  0.08073331    -1.12800
O167        O  0.33687047  0.51977138  0.08245666    -0.75300
O168        O  0.30252766  0.50191504  0.07585601    -0.78800
O169        O  0.26252300  0.58521609  0.06427031    -0.79400
C170        C  0.32476545  0.50205446  0.07357028     0.95800
O171        O  0.27353635  0.52395624  0.13994578    -0.77400
O172        O  0.34897378  0.56884637  0.08328615    -0.82600
C173        C  0.31061708  0.59644615  0.13615464     0.98400
C174        C  0.34901384  0.57976808  0.05057373     1.04400
O175        O  0.30524331  0.60134117  0.09994562    -0.78200
C176        C  0.29018703  0.52102240  0.16423703     1.02700
Fe177      Fe  0.05628295  0.22211962  0.47184220     1.65800
Fe178      Fe  0.07908268  0.17291914  0.43183703     1.73200
Fe179      Fe  0.11068060  0.20283451  0.49927285     1.54400
O180        O  0.11393151  0.23715471  0.48385369    -0.82000
O181        O  0.09762459  0.14966599  0.46715793    -0.80300
O182        O  0.07804619  0.25113572  0.47463877    -0.84500
O183        O  0.05603931  0.21985562  0.53264434    -0.79300
O184        O  0.13218754  0.19482832  0.45052317    -0.81100
O185        O  0.04918469  0.16234109  0.45940903    -0.83900
C186        C  0.07137793  0.21658694  0.55928586     0.96900
C187        C  0.09988987  0.25388975  0.47833383     1.04300
O188        O  0.08205622  0.19942367  0.46780093    -1.12800
O189        O  0.06045652  0.19110693  0.38932367    -0.75300
O190        O  0.05358958  0.22691550  0.41090272    -0.78800
O191        O  0.09237826  0.21115764  0.55116663    -0.79400
C192        C  0.05349615  0.21179621  0.38356457     0.95800
O193        O  0.03098993  0.19599672  0.47107690    -0.77400
O194        O  0.10863625  0.18223766  0.40228990    -0.82600
C195        C  0.10806729  0.15008105  0.50043098     0.98400
C196        C  0.12844567  0.18872195  0.41453308     1.04400
O197        O  0.11125716  0.16885267  0.51909501    -0.78200
C198        C  0.03124344  0.17381210  0.46953443     1.02700
Fe199      Fe  0.25146608  0.02476995  0.08808732     1.65800
Fe200      Fe  0.20202084  0.04747829  0.12697114     1.73200
Fe201      Fe  0.23302781  0.07956806  0.06162425     1.54400
O202        O  0.26710654  0.08274758  0.07888275    -0.82000
O203        O  0.17979776  0.06755706  0.09244478    -0.80300
O204        O  0.28063577  0.04646798  0.08578560    -0.84500
O205        O  0.24970537  0.02515836  0.02683721    -0.79300
O206        O  0.22381539  0.10035321  0.11031913    -0.81100
O207        O  0.19111489  0.01837065  0.09719173    -0.83900
C208        C  0.24698272  0.04108459  0.00082858     0.96900
C209        C  0.28370929  0.06836674  0.08299671     1.04300
O210        O  0.22903803  0.05063954  0.09212464    -1.12800
O211        O  0.21887905  0.02688162  0.16810287    -0.75300
O212        O  0.25542834  0.02109086  0.14966824    -0.78800
O213        O  0.24226557  0.06207353  0.00981160    -0.79400
C214        C  0.23917724  0.01929330  0.17519179     0.95800
O215        O  0.22495621  0.99989987  0.08806142    -0.77400
O216        O  0.21189719  0.07620332  0.15860485    -0.82600
C217        C  0.18060348  0.07741811  0.05861605     0.98400
C218        C  0.21786934  0.09627179  0.14635944     1.04400
O219        O  0.19951396  0.07991244  0.03991939    -0.78200
C220        C  0.20273372  0.00022991  0.08847751     1.02700
Fe221      Fe  0.05531148  0.74309971  0.97897011     1.65800
Fe222      Fe  0.07366497  0.79202220  0.93393395     1.73200
Fe223      Fe  0.10975292  0.76428379  0.99700780     1.54400
O224        O  0.09495725  0.75554766  0.05254516    -0.82000
O225        O  0.09977591  0.78056280  0.89764102    -0.80300
O226        O  0.05824362  0.74575341  0.03936914    -0.84500
O227        O  0.07824413  0.71462139  0.97927098    -0.79300
O228        O  0.10934660  0.79854327  0.01518877    -0.81100
O229        O  0.04954026  0.77473685  0.89948455    -0.83900
C230        C  0.10034223  0.71272149  0.97983453     0.96900
C231        C  0.07458859  0.74955576  0.06381727     1.04300
O232        O  0.07969826  0.76617471  0.97023764    -1.12800
O233        O  0.04766164  0.80334756  0.97062855    -0.75300
O234        O  0.02973998  0.76936722  0.98163885    -0.78800
O235        O  0.11377200  0.73003903  0.98265749    -0.79400
C236        C  0.03036299  0.79162745  0.98304440     0.95800
O237        O  0.04969562  0.73792772  0.91865960    -0.77400
O238        O  0.09657819  0.81508645  0.95984380    -0.82600
C239        C  0.12078840  0.77603818  0.90702088     0.98400
C240        C  0.10738787  0.81612425  0.99261940     1.04400
O241        O  0.12729759  0.77254904  0.94321856    -0.78200
C242        C  0.04411298  0.75369488  0.89384219     1.02700
Fe243      Fe  0.25505053  0.93923694  0.58727231     1.65800
Fe244      Fe  0.20648513  0.91768125  0.62913176     1.73200
Fe245      Fe  0.23626465  0.88454580  0.56441480     1.54400
O246        O  0.24541701  0.90146018  0.51069595    -0.82000
O247        O  0.21793029  0.89031257  0.66303340    -0.80300
O248        O  0.25263560  0.93845000  0.52665087    -0.84500
O249        O  0.28432985  0.91726920  0.58448770    -0.79300
O250        O  0.20247053  0.88422467  0.54451608    -0.81100
O251        O  0.22329517  0.94029377  0.66706821    -0.83900
C252        C  0.28727641  0.89528831  0.58250549     0.96900
C253        C  0.25067398  0.92237314  0.50119685     1.04300
O254        O  0.23280597  0.91375153  0.59327864    -1.12800
O255        O  0.19465565  0.94525228  0.59590738    -0.75300
O256        O  0.22813459  0.96433741  0.58740615    -0.78800
O257        O  0.27042427  0.88121937  0.58036177    -0.79400
C258        C  0.20586392  0.96355155  0.58678427     0.95800
O259        O  0.26001377  0.94269672  0.64799688    -0.77400
O260        O  0.18426302  0.89558099  0.59897187    -0.82600
C261        C  0.22280623  0.86974554  0.65200082     0.98400
C262        C  0.18439408  0.88511822  0.56585309     1.04400
O263        O  0.22747002  0.86468265  0.61567784    -0.78200
C264        C  0.24410561  0.94648008  0.67329851     1.02700
Fe265      Fe  0.97214878  0.73840938  0.47947043     1.65800
Fe266      Fe  0.95693767  0.78871504  0.43358984     1.73200
Fe267      Fe  0.91837299  0.76286060  0.49498094     1.54400
O268        O  0.91310540  0.72847012  0.48247658    -0.82000
O269        O  0.93692080  0.81395306  0.46107023    -0.80300
O270        O  0.94785381  0.71120044  0.48024291    -0.84500
O271        O  0.96866581  0.74184469  0.53990001    -0.79300
O272        O  0.90172331  0.77113008  0.44061130    -0.81100
O273        O  0.98407229  0.79761398  0.46930576    -0.83900
C274        C  0.95230724  0.74748070  0.56338733     0.96900
C275        C  0.92570738  0.71037534  0.48099250     1.04300
O276        O  0.94899490  0.76310833  0.46951034    -1.12800
O277        O  0.97894208  0.76915762  0.39856216    -0.75300
O278        O  0.97803401  0.73250115  0.41918967    -0.78800
O279        O  0.93249136  0.75468595  0.55106522    -0.79400
C280        C  0.98385295  0.74786290  0.39379416     0.95800
O281        O  0.99957278  0.76263763  0.48212922    -0.77400
O282        O  0.92982634  0.78036677  0.39706567    -0.82600
C283        C  0.92467669  0.81525084  0.49230307     0.98400
C284        C  0.90871799  0.77582735  0.40519538     1.04400
O285        O  0.91910861  0.79727616  0.51191633    -0.78200
C286        C  0.00061458  0.78487765  0.48198609     1.02700
Fe287      Fe  0.77304912  0.94323779  0.08039753     1.65800
Fe288      Fe  0.82146077  0.92356388  0.12639189     1.73200
Fe289      Fe  0.79349265  0.88822897  0.06324833     1.54400
O290        O  0.75925720  0.88475670  0.07877534    -0.82000
O291        O  0.84503405  0.90207915  0.09781300    -0.80300
O292        O  0.74450317  0.92073083  0.07737601    -0.84500
O293        O  0.77723832  0.94091892  0.02007967    -0.79300
O294        O  0.80238389  0.86979027  0.11564889    -0.81100
O295        O  0.83270115  0.95071810  0.09229389    -0.83900
C296        C  0.78016150  0.92405712  0.99636459     0.96900
C297        C  0.74212923  0.89870810  0.07864765     1.04300
O298        O  0.79578494  0.91825091  0.08982287    -1.12800
O299        O  0.80305208  0.94613570  0.16211502    -0.75300
O300        O  0.76666531  0.94799002  0.14057207    -0.78800
O301        O  0.78472819  0.90340986  0.00829077    -0.79400
C302        C  0.78202271  0.95224089  0.16666749     0.95800
O303        O  0.79900014  0.96901825  0.08066838    -0.77400
O304        O  0.81090601  0.89648891  0.16156229    -0.82600
C305        C  0.84560179  0.89123876  0.06508114     0.98400
C306        C  0.80681880  0.87561625  0.15161442     1.04400
O307        O  0.82749031  0.88834429  0.04432498    -0.78200
C308        C  0.82124771  0.96859391  0.08146869     1.02700
Fe309      Fe  0.97031429  0.22636435  0.97283921     1.65800
Fe310      Fe  0.95064522  0.17613083  0.93424110     1.73200
Fe311      Fe  0.91727871  0.20526475  0.00043281     1.54400
O312        O  0.93493383  0.21562586  0.05222976    -0.82000
O313        O  0.92122320  0.18479837  0.90308033    -0.80300
O314        O  0.97129868  0.22357331  0.03338017    -0.84500
O315        O  0.94718099  0.25433021  0.97788475    -0.79300
O316        O  0.91919677  0.17170546  0.02174887    -0.81100
O317        O  0.97007705  0.19436902  0.89311876    -0.83900
C318        C  0.92522706  0.25652192  0.98133899     0.96900
C319        C  0.95596277  0.22102332  0.06016231     1.04300
O320        O  0.94599349  0.20271500  0.96938455    -1.12800
O321        O  0.98052333  0.16649036  0.96364713    -0.75300
O322        O  0.99685515  0.20141657  0.97113916    -0.78800
O323        O  0.91168769  0.23922479  0.98342594    -0.79400
C324        C  0.99787129  0.17923213  0.97184159     0.95800
O325        O  0.97177403  0.23126013  0.91162047    -0.77400
O326        O  0.93182543  0.15285819  0.96865058    -0.82600
C327        C  0.90085291  0.18929408  0.91561995     0.98400
C328        C  0.92187882  0.15310255  0.00235042     1.04400
O329        O  0.89664752  0.19492368  0.95176326    -0.78200
C330        C  0.97511268  0.21543203  0.88600898     1.02700
Fe331      Fe  0.77340334  0.02535443  0.58137404     1.65800
Fe332      Fe  0.82391153  0.04397119  0.62174237     1.73200
Fe333      Fe  0.79410677  0.07955840  0.55946125     1.54400
O334        O  0.78422578  0.06377918  0.50608255    -0.82000
O335        O  0.81546819  0.07224491  0.65593862    -0.80300
O336        O  0.77580666  0.02673782  0.52048872    -0.84500
O337        O  0.74500217  0.04839033  0.57937521    -0.79300
O338        O  0.82757203  0.07925284  0.53829613    -0.81100
O339        O  0.80588686  0.02296045  0.66110608    -0.83900
C340        C  0.74295605  0.07045635  0.57893839     0.96900
C341        C  0.77881585  0.04318717  0.49561318     1.04300
O342        O  0.79702308  0.04970869  0.58732250    -1.12800
O343        O  0.83340276  0.01525744  0.58921488    -0.75300
O344        O  0.79860697  0.99881858  0.58127541    -0.78800
O345        O  0.76030840  0.08386707  0.57670157    -0.79400
C346        C  0.82082002  0.99779480  0.58094686     0.95800
O347        O  0.76893578  0.02162716  0.64224401    -0.77400
O348        O  0.84706286  0.06410213  0.58911168    -0.82600
C349        C  0.81000564  0.09291542  0.64578339     0.98400
C350        C  0.84640725  0.07564902  0.55680238     1.04400
O351        O  0.80387346  0.09835481  0.61026230    -0.78200
C352        C  0.78487544  0.01743473  0.66752210     1.02700
C353        C  0.88149542  0.18653543  0.88687318    -0.03500
C354        C  0.85934867  0.17946277  0.89961322    -0.06100
C355        C  0.84274910  0.17210009  0.87180155    -0.21200
C356        C  0.84781645  0.17205828  0.83079085     0.24500
C357        C  0.86944464  0.18071796  0.81804137    -0.18700
C358        C  0.88604092  0.18782787  0.84576068    -0.08700
C359        C  0.83200164  0.15960658  0.80301081    -0.19000
C360        C  0.83268756  0.16217815  0.76301494    -0.23800
C361        C  0.82255069  0.14507877  0.73477466     0.26600
C362        C  0.81918200  0.15157007  0.69470230    -0.20600
C363        C  0.81370660  0.13488870  0.66589131    -0.10200
C364        C  0.81187935  0.11127720  0.67654773    -0.10700
C365        C  0.81409693  0.10499866  0.71696276    -0.03700
C366        C  0.81936912  0.12163588  0.74570331    -0.18800
H367        H  0.85540742  0.17812922  0.93110417     0.10300
H368        H  0.82631148  0.16536138  0.88248577     0.10400
H369        H  0.87437153  0.18055105  0.78695421     0.10000
H370        H  0.90294935  0.19325862  0.83502672     0.11100
H371        H  0.82053880  0.14668219  0.81605248     0.11200
H372        H  0.84233046  0.17654880  0.75007883     0.13100
H373        H  0.82170607  0.16946105  0.68538984     0.09700
H374        H  0.81213291  0.14030291  0.63502760     0.11700
H375        H  0.81269419  0.08697965  0.72626182     0.08400
H376        H  0.82233913  0.11570059  0.77593602     0.11100
C377        C  0.91177109  0.13123323  0.01814005    -0.03500
C378        C  0.90004248  0.13084487  0.05492737    -0.06100
C379        C  0.88754429  0.11116509  0.06687485    -0.21200
C380        C  0.88669503  0.09142606  0.04255557     0.24500
C381        C  0.89895382  0.09158340  0.00627783    -0.18700
C382        C  0.91142887  0.11119909  0.99435515    -0.08700
C383        C  0.87184676  0.07148998  0.05449319    -0.19000
C384        C  0.87621358  0.04962231  0.04255630    -0.23800
C385        C  0.86145107  0.02946279  0.05315866     0.26600
C386        C  0.87189571  0.00744711  0.05506349    -0.20600
C387        C  0.85872584  0.98779972  0.06389407    -0.10200
C388        C  0.83462904  0.98962589  0.07044346    -0.10700
C389        C  0.82398726  0.01164986  0.06781206    -0.03700
C390        C  0.83730392  0.03145306  0.05936952    -0.18800
H391        H  0.89986030  0.14601521  0.07389587     0.10300
H392        H  0.87819132  0.11149484  0.09488552     0.10400
H393        H  0.89818328  0.07699003  0.98613200     0.10000
H394        H  0.91999695  0.11097431  0.96562398     0.11100
H395        H  0.85742763  0.07483262  0.07458360     0.11200
H396        H  0.89197395  0.04598303  0.02587115     0.13100
H397        H  0.89040779  0.00545352  0.04999974     0.09700
H398        H  0.86749680  0.97110784  0.06551034     0.11700
H399        H  0.80546771  0.01360336  0.07270428     0.08400
H400        H  0.82863472  0.04815456  0.05704297     0.11100
C401        C  0.77818110  0.92924553  0.95321545    -0.03500
C402        C  0.78972570  0.91573979  0.92457573    -0.06100
C403        C  0.78976182  0.92270240  0.88442418    -0.21200
C404        C  0.77785722  0.94294059  0.87215696     0.24500
C405        C  0.76558384  0.95587313  0.90069844    -0.18700
C406        C  0.76577393  0.94910689  0.94065365    -0.08700
C407        C  0.78068802  0.95173336  0.83072826    -0.19000
C408        C  0.76537292  0.96632614  0.81299053    -0.23800
C409        C  0.77049284  0.97876733  0.77513669     0.26600
C410        C  0.75215788  0.98586216  0.75010036    -0.20600
C411        C  0.75660291  0.99864001  0.71521218    -0.10200
C412        C  0.77947913  0.00492485  0.70518850    -0.10700
C413        C  0.79771715  0.99818763  0.73085015    -0.03700
C414        C  0.79330219  0.98527694  0.76531273    -0.18800
H415        H  0.79952292  0.90042409  0.93343732     0.10300
H416        H  0.79956210  0.91258506  0.86304624     0.10400
H417        H  0.75676021  0.97190437  0.89276257     0.10000
H418        H  0.75663453  0.95985007  0.96198949     0.11100
H419        H  0.79634030  0.94660428  0.81488338     0.11200
H420        H  0.74863902  0.96964679  0.82685043     0.13100
H421        H  0.73438271  0.98138082  0.75745374     0.09700
H422        H  0.74217629  0.00354848  0.69612327     0.11700
H423        H  0.81556222  0.00276667  0.72424846     0.08400
H424        H  0.80776427  0.98089046  0.78465857     0.11100
C425        C  0.77607280  0.96521742  0.20333804    -0.03500
C426        C  0.75296471  0.96848155  0.21582432    -0.06100
C427        C  0.74816334  0.98044398  0.25126419    -0.21200
C428        C  0.76631219  0.98974912  0.27425565     0.24500
C429        C  0.78934706  0.98661817  0.26140067    -0.18700
C430        C  0.79412742  0.97457291  0.22648007    -0.08700
C431        C  0.76119971  0.00083338  0.31320719    -0.19000
C432        C  0.77543891  0.01669235  0.32976974    -0.23800
C433        C  0.77360696  0.02467414  0.37171287     0.26600
C434        C  0.76277019  0.01112378  0.40132343    -0.20600
C435        C  0.76399834  0.01758098  0.44131771    -0.10200
C436        C  0.77603150  0.03772643  0.45276666    -0.10700
C437        C  0.78624904  0.05166978  0.42311419    -0.03700
C438        C  0.78520651  0.04507602  0.38303643    -0.18800
H439        H  0.73869704  0.96145914  0.19865609     0.10300
H440        H  0.73027592  0.98234913  0.26085649     0.10400
H441        H  0.80386877  0.99275897  0.27889653     0.10000
H442        H  0.81214796  0.97247777  0.21776810     0.11100
H443        H  0.74560753  0.99535186  0.32879490     0.11200
H444        H  0.78963702  0.02376520  0.31220567     0.13100
H445        H  0.75421828  0.99496568  0.39413175     0.09700
H446        H  0.75588962  0.00647017  0.46344373     0.11700
H447        H  0.79574941  0.06720431  0.43101307     0.08400
H448        H  0.79394249  0.05567770  0.36087882     0.11100
C449        C  0.89184948  0.77712281  0.37175531    -0.03500
C450        C  0.90004982  0.77735749  0.33224312    -0.06100
C451        C  0.88504991  0.78224988  0.30055424    -0.21200
C452        C  0.86154148  0.78730347  0.30749761     0.24500
C453        C  0.85288777  0.78541000  0.34668515    -0.18700
C454        C  0.86793717  0.78032759  0.37853945    -0.08700
C455        C  0.84734753  0.79623693  0.27355230    -0.19000
C456        C  0.82986188  0.81162764  0.27834165    -0.23800
C457        C  0.82051371  0.82612302  0.24508792     0.26600
C458        C  0.81270653  0.84863206  0.25394056    -0.20600
C459        C  0.80700837  0.86425952  0.22347127    -0.10200
C460        C  0.80862703  0.85763953  0.18330518    -0.10700
C461        C  0.81469757  0.83454202  0.17437776    -0.03700
C462        C  0.82068406  0.81889751  0.20502408    -0.18800
H463        H  0.91831307  0.77458983  0.32583794     0.10300
H464        H  0.89213742  0.78329992  0.27068249     0.10400
H465        H  0.83467470  0.78841124  0.35298849     0.10000
H466        H  0.86105288  0.78000877  0.40857064     0.11100
H467        H  0.85388659  0.79294691  0.24375862     0.11200
H468        H  0.82475932  0.81652889  0.30828530     0.13100
H469        H  0.81219367  0.85458832  0.28450491     0.09700
H470        H  0.80215932  0.88186744  0.23136633     0.11700
H471        H  0.81602049  0.82893345  0.14370626     0.08400
H472        H  0.82596580  0.80142690  0.19720536     0.11100
C473        C  0.91608519  0.83843763  0.50531870    -0.03500
C474        C  0.92259776  0.85871226  0.48451252    -0.06100
C475        C  0.91321256  0.88035872  0.49470469    -0.21200
C476        C  0.89689123  0.88231536  0.52559929     0.24500
C477        C  0.89091908  0.86218027  0.54736956    -0.18700
C478        C  0.90039875  0.84050052  0.53728909    -0.08700
C479        C  0.88670540  0.90563754  0.53421423    -0.19000
C480        C  0.86571637  0.90873826  0.55140149    -0.23800
C481        C  0.85476472  0.93198146  0.55792612     0.26600
C482        C  0.83057508  0.93323288  0.56342075    -0.20600
C483        C  0.81950578  0.95459210  0.57004070    -0.10200
C484        C  0.83241828  0.97527798  0.57181382    -0.10700
C485        C  0.85667646  0.97403955  0.56660050    -0.03700
C486        C  0.86773739  0.95267810  0.55977914    -0.18800
H487        H  0.93471532  0.85784271  0.45986775     0.10300
H488        H  0.91834828  0.89559151  0.47774134     0.10400
H489        H  0.87902359  0.86305629  0.57227726     0.10000
H490        H  0.89513457  0.82529284  0.55417014     0.11100
H491        H  0.89619749  0.92064616  0.52329738     0.11200
H492        H  0.85536424  0.89360041  0.55897725     0.13100
H493        H  0.82015014  0.91758893  0.56250532     0.09700
H494        H  0.80084274  0.95482701  0.57436660     0.11700
H495        H  0.86720241  0.98958739  0.56815285     0.08400
H496        H  0.88646339  0.95249555  0.55689083     0.11100
C497        C  0.16324687  0.87245660  0.55319421    -0.03500
C498        C  0.16373004  0.85780330  0.51977991    -0.06100
C499        C  0.14459655  0.84385388  0.51058528    -0.21200
C500        C  0.12449628  0.84442433  0.53425195     0.24500
C501        C  0.12397877  0.85913029  0.56762029    -0.18700
C502        C  0.14308184  0.87302770  0.57684527    -0.08700
C503        C  0.10455073  0.82925473  0.52378534    -0.19000
C504        C  0.08247315  0.83476442  0.53318775    -0.23800
C505        C  0.06201353  0.82102829  0.52057152     0.26600
C506        C  0.04082682  0.83277059  0.51556085    -0.20600
C507        C  0.02103038  0.82089130  0.50338465    -0.10200
C508        C  0.02179123  0.79679598  0.49643025    -0.10700
C509        C  0.04288485  0.78479708  0.50244401    -0.03700
C510        C  0.06289501  0.79683194  0.51429806    -0.18800
H511        H  0.17910158  0.85667539  0.50124974     0.10300
H512        H  0.14550065  0.83256563  0.48489567     0.10400
H513        H  0.10912851  0.85952698  0.58738099     0.10000
H514        H  0.14224108  0.88379724  0.60317596     0.11100
H515        H  0.10799889  0.81410144  0.50551888     0.11200
H516        H  0.07891192  0.85113593  0.54797592     0.13100
H517        H  0.03964546  0.85134653  0.52053108     0.09700
H518        H  0.00506010  0.83069645  0.49939123     0.11700
H519        H  0.04398946  0.76622830  0.49750156     0.08400
H520        H  0.07887236  0.78716629  0.51892363     0.11100
C521        C  0.01011458  0.80453245  0.99893317    -0.03500
C522        C  0.01254819  0.82782640  0.01075100    -0.06100
C523        C  0.99331743  0.84055759  0.02382988    -0.21200
C524        C  0.97118642  0.83045260  0.02466229     0.24500
C525        C  0.96883081  0.80688701  0.01427853    -0.18700
C526        C  0.98814840  0.79403576  0.00162925    -0.08700
C527        C  0.95099524  0.84498169  0.03648596    -0.19000
C528        C  0.92948307  0.84161601  0.02176788    -0.23800
C529        C  0.90895267  0.85621393  0.03197219     0.26600
C530        C  0.88914375  0.85495405  0.00759778    -0.20600
C531        C  0.86884588  0.86709199  0.01735944    -0.10200
C532        C  0.86786112  0.88070748  0.05195240    -0.10700
C533        C  0.88789371  0.88250343  0.07580258    -0.03700
C534        C  0.90817947  0.87033443  0.06607841    -0.18800
H535        H  0.02932935  0.83629932  0.00964297     0.10300
H536        H  0.99562858  0.85855853  0.03229433     0.10400
H537        H  0.95212812  0.79832829  0.01596176     0.10000
H538        H  0.98578976  0.77605243  0.99314986     0.11100
H539        H  0.95446582  0.85979385  0.05539709     0.11200
H540        H  0.92685689  0.82800971  0.99992907     0.13100
H541        H  0.88923224  0.84419808  0.98119863     0.09700
H542        H  0.85372774  0.86526238  0.99837877     0.11700
H543        H  0.88769755  0.89271910  0.10281108     0.08400
H544        H  0.92279069  0.87145772  0.08624394     0.11100
C545        C  0.13811200  0.77587145  0.87417517    -0.03500
C546        C  0.13042655  0.77449396  0.83443922    -0.06100
C547        C  0.14583926  0.77783754  0.80282424    -0.21200
C548        C  0.16929242  0.78295057  0.80995207     0.24500
C549        C  0.17745016  0.78258289  0.84963155    -0.18700
C550        C  0.16196938  0.77905171  0.88144998    -0.08700
C551        C  0.18376266  0.79059720  0.77541604    -0.19000
C552        C  0.20169070  0.80546854  0.77903634    -0.23800
C553        C  0.21081597  0.81961744  0.74513894     0.26600
C554        C  0.21979319  0.84165758  0.75375837    -0.20600
C555        C  0.22500219  0.85735449  0.72320880    -0.10200
C556        C  0.22176578  0.85129896  0.68306970    -0.10700
C557        C  0.21463498  0.82856045  0.67410217    -0.03700
C558        C  0.20910844  0.81283170  0.70489984    -0.18800
H559        H  0.11223743  0.77164804  0.82767669     0.10300
H560        H  0.13908691  0.77769343  0.77266493     0.10400
H561        H  0.19558361  0.78561943  0.85633344     0.10000
H562        H  0.16848435  0.77990566  0.91169677     0.11100
H563        H  0.17697557  0.78699948  0.74590694     0.11200
H564        H  0.20729134  0.81049324  0.80863291     0.13100
H565        H  0.22152416  0.84730720  0.78436392     0.09700
H566        H  0.23069061  0.87466904  0.73110500     0.11700
H567        H  0.21203685  0.82340044  0.64343676     0.08400
H568        H  0.20290510  0.79571718  0.69707888     0.11100
C569        C  0.06895816  0.74659913  0.10689367    -0.03500
C570        C  0.08578437  0.74903956  0.13699249    -0.06100
C571        C  0.07961223  0.74635952  0.17729911    -0.21200
C572        C  0.05663203  0.74090036  0.18825672     0.24500
C573        C  0.03991449  0.73836313  0.15810985    -0.18700
C574        C  0.04598807  0.74113962  0.11814637    -0.08700
C575        C  0.04986487  0.74042426  0.23109936    -0.19000
C576        C  0.03108952  0.72886454  0.24505632    -0.23800
C577        C  0.02115708  0.73264874  0.28550380     0.26600
C578        C  0.00702913  0.71551603  0.30324649    -0.20600
C579        C  0.99542991  0.71986007  0.33933951    -0.10200
C580        C  0.99730907  0.74167349  0.35765704    -0.10700
C581        C  0.01171632  0.75859201  0.34012591    -0.03700
C582        C  0.02350447  0.75416128  0.30466512    -0.18800
H583        H  0.10360007  0.75321560  0.12945930     0.10300
H584        H  0.09276551  0.74875639  0.20001982     0.10400
H585        H  0.02187417  0.73504974  0.16523345     0.10000
H586        H  0.03241189  0.73929229  0.09601199     0.11100
H587        H  0.06029623  0.75063224  0.25147285     0.11200
H588        H  0.02203981  0.71681041  0.22574611     0.13100
H589        H  0.00466679  0.69889654  0.28879498     0.09700
H590        H  0.98437693  0.70654661  0.35208718     0.11700
H591        H  0.01362313  0.77555573  0.35359879     0.08400
H592        H  0.03358944  0.76807108  0.29150109     0.11100
C593        C  0.95718343  0.74565542  0.60678361    -0.03500
C594        C  0.94401508  0.75799782  0.63491454    -0.06100
C595        C  0.95056893  0.75791530  0.67521654    -0.21200
C596        C  0.97017366  0.74525721  0.68831651     0.24500
C597        C  0.98282568  0.73228211  0.66026504    -0.18700
C598        C  0.97638332  0.73247409  0.62014331    -0.08700
C599        C  0.97836594  0.74796715  0.73019651    -0.19000
C600        C  0.99369108  0.73344453  0.74826145    -0.23800
C601        C  0.00505866  0.73864415  0.78710642     0.26600
C602        C  0.01498299  0.72043604  0.80970247    -0.20600
C603        C  0.02741791  0.72506659  0.84477312    -0.10200
C604        C  0.03050823  0.74808646  0.85752231    -0.10700
C605        C  0.02046891  0.76623780  0.83492826    -0.03700
C606        C  0.00796515  0.76161972  0.80023688    -0.18800
H607        H  0.92921408  0.76840273  0.62558063     0.10300
H608        H  0.94062258  0.76824932  0.69608854     0.10400
H609        H  0.99836644  0.72277860  0.66859021     0.10000
H610        H  0.98690274  0.72269034  0.59931669     0.11100
H611        H  0.97186733  0.76295808  0.74630105     0.11200
H612        H  0.99851714  0.71724848  0.73400204     0.13100
H613        H  0.01327574  0.70259003  0.79998896     0.09700
H614        H  0.03494792  0.71070672  0.86145454     0.11700
H615        H  0.02243846  0.78419786  0.84384120     0.08400
H616        H  0.00134056  0.77623149  0.78316379     0.11100
C617        C  0.11893114  0.83820849  0.00322370    -0.03500
C618        C  0.12564718  0.85368172  0.97274615    -0.06100
C619        C  0.13808610  0.87379374  0.98157187    -0.21200
C620        C  0.14346852  0.87927780  0.02109768     0.24500
C621        C  0.13644487  0.86411632  0.05185258    -0.18700
C622        C  0.12450041  0.84356886  0.04291762    -0.08700
C623        C  0.15730385  0.90039940  0.02906531    -0.19000
C624        C  0.15253605  0.91481951  0.05935014    -0.23800
C625        C  0.16560621  0.93668580  0.06552148     0.26600
C626        C  0.15375107  0.95651349  0.07883451    -0.20600
C627        C  0.16570250  0.97728720  0.08533581    -0.10200
C628        C  0.18991031  0.97852003  0.07945230    -0.10700
C629        C  0.20178256  0.95855336  0.06628027    -0.03700
C630        C  0.18974529  0.93787799  0.05922021    -0.18800
H631        H  0.12188381  0.84988762  0.94182747     0.10300
H632        H  0.14346825  0.88517102  0.95744344     0.10400
H633        H  0.14075935  0.86782671  0.08257913     0.10000
H634        H  0.11967209  0.83187709  0.06693322     0.11100
H635        H  0.17056749  0.90518773  0.00749379     0.11200
H636        H  0.13762355  0.91134777  0.07833586     0.13100
H637        H  0.13515804  0.95595809  0.08395988     0.09700
H638        H  0.15600125  0.99227736  0.09561517     0.11700
H639        H  0.22041849  0.95883723  0.06165891     0.08400
H640        H  0.19940538  0.92269747  0.04967332     0.11100
C641        C  0.15883027  0.08704433  0.04146180    -0.03500
C642        C  0.15744763  0.09384123  0.00116640    -0.06100
C643        C  0.13713284  0.10423234  0.98613841    -0.21200
C644        C  0.11811589  0.10849492  0.01130980     0.24500
C645        C  0.11932705  0.10119010  0.05130305    -0.18700
C646        C  0.13941071  0.09054742  0.06614669    -0.08700
C647        C  0.09699735  0.12023286  0.99542000    -0.19000
C648        C  0.08419048  0.13476531  0.01791767    -0.23800
C649        C  0.06253333  0.14628212  0.00391810     0.26600
C650        C  0.05597953  0.16753594  0.02101139    -0.20600
C651        C  0.03515063  0.17843454  0.01003601    -0.10200
C652        C  0.02014954  0.16794288  0.98252673    -0.10700
C653        C  0.02652327  0.14652652  0.96569848    -0.03700
C654        C  0.04762943  0.13585825  0.97603131    -0.18800
H655        H  0.17208717  0.09125405  0.98136563     0.10300
H656        H  0.13646100  0.10945818  0.95507798     0.10400
H657        H  0.10469372  0.10356642  0.07117250     0.10000
H658        H  0.13987225  0.08549605  0.09729406     0.11100
H659        H  0.09254495  0.11765563  0.96430243     0.11200
H660        H  0.09023418  0.13909197  0.04764754     0.13100
H661        H  0.06704021  0.17574414  0.04292679     0.09700
H662        H  0.03051551  0.19483048  0.02371596     0.11700
H663        H  0.01521721  0.13809708  0.94442076     0.08400
H664        H  0.05189374  0.11918796  0.96306641     0.11100
C665        C  0.24888696  0.03461886  0.95832212    -0.03500
C666        C  0.23611567  0.04671069  0.92904745    -0.06100
C667        C  0.23596029  0.03895887  0.88958349    -0.21200
C668        C  0.24901706  0.01935947  0.87839755     0.24500
C669        C  0.26246990  0.00775966  0.90743938    -0.18700
C670        C  0.26228240  0.01524370  0.94701539    -0.08700
C671        C  0.24621085  0.00992641  0.83757706    -0.19000
C672        C  0.26239281  0.99676433  0.81923730    -0.23800
C673        C  0.25760682  0.98452952  0.78125099     0.26600
C674        C  0.27574550  0.98014719  0.75424758    -0.20600
C675        C  0.27159417  0.96768591  0.71913358    -0.10200
C676        C  0.24926819  0.95904176  0.71080310    -0.10700
C677        C  0.23126504  0.96322796  0.73826669    -0.03700
C678        C  0.23536389  0.97578175  0.77296646    -0.18800
H679        H  0.22546419  0.06155884  0.93698899     0.10300
H680        H  0.22523928  0.04801798  0.86786512     0.10400
H681        H  0.27226954  0.99225002  0.90015418     0.10000
H682        H  0.27227815  0.00557994  0.96898328     0.11100
H683        H  0.22995824  0.01374844  0.82228573     0.11200
H684        H  0.27955478  0.99475142  0.83237987     0.13100
H685        H  0.29310466  0.98649208  0.76024743     0.09700
H686        H  0.28581336  0.96485346  0.69856046     0.11700
H687        H  0.21386151  0.95678548  0.73303171     0.08400
H688        H  0.22116115  0.97813359  0.79373485     0.11100
C689        C  0.24279593  0.00708961  0.21404459    -0.03500
C690        C  0.22401461  0.00552786  0.24086935    -0.06100
C691        C  0.22541494  0.99164246  0.27494659    -0.21200
C692        C  0.24572793  0.97918619  0.28391027     0.24500
C693        C  0.26502989  0.98134999  0.25824156    -0.18700
C694        C  0.26352514  0.99513578  0.22345750    -0.08700
C695        C  0.24539342  0.96365736  0.31956765    -0.19000
C696        C  0.26420145  0.95856710  0.34182022    -0.23800
C697        C  0.26203437  0.94683354  0.38128048     0.26600
C698        C  0.27534422  0.95513282  0.41304108    -0.20600
C699        C  0.27192744  0.94653908  0.45156550    -0.10200
C700        C  0.25548992  0.92898944  0.45922152    -0.10700
C701        C  0.24314840  0.91953164  0.42707377    -0.03700
C702        C  0.24622355  0.92856163  0.38837793    -0.18800
H703        H  0.20775267  0.01449019  0.23498842     0.10300
H704        H  0.21036829  0.99044923  0.29427805     0.10400
H705        H  0.28091764  0.97176791  0.26413661     0.10000
H706        H  0.27825228  0.99583534  0.20339864     0.11100
H707        H  0.22844518  0.95811506  0.33028471     0.11200
H708        H  0.28091880  0.96597269  0.33381468     0.13100
H709        H  0.28769977  0.96906487  0.40834988     0.09700
H710        H  0.28192936  0.95397210  0.47568625     0.11700
H711        H  0.23046823  0.90595167  0.43211107     0.08400
H712        H  0.23602935  0.92152565  0.36417116     0.11100
C713        C  0.86804466  0.08642317  0.54141459    -0.03500
C714        C  0.86766126  0.09987759  0.50621964    -0.06100
C715        C  0.88720862  0.11257860  0.49447781    -0.21200
C716        C  0.90764671  0.11187524  0.51727705     0.24500
C717        C  0.90826544  0.09802517  0.55199431    -0.18700
C718        C  0.88869224  0.08541345  0.56386898    -0.08700
C719        C  0.92763536  0.12657489  0.50521443    -0.19000
C720        C  0.94979890  0.12046927  0.51282246    -0.23800
C721        C  0.96997032  0.13474610  0.50046567     0.26600
C722        C  0.99079898  0.12340319  0.49088047    -0.20600
C723        C  0.01048656  0.13612699  0.48037788    -0.10200
C724        C  0.00994170  0.16060429  0.47987464    -0.10700
C725        C  0.98904767  0.17203521  0.48968414    -0.03700
C726        C  0.96920087  0.15921925  0.49979584    -0.18800
H727        H  0.85202653  0.10115945  0.48830216     0.10300
H728        H  0.88629767  0.12316961  0.46768854     0.10400
H729        H  0.92354514  0.09755126  0.57084680     0.10000
H730        H  0.88951211  0.07550425  0.59140052     0.11100
H731        H  0.92404290  0.14222034  0.48789990     0.11200
H732        H  0.95346705  0.10366271  0.52646966     0.13100
H733        H  0.99182135  0.10457725  0.49139543     0.09700
H734        H  0.02624078  0.12669795  0.47304306     0.11700
H735        H  0.98806095  0.19085105  0.48977798     0.08400
H736        H  0.95348678  0.16845953  0.50796810     0.11100
C737        C  0.98599939  0.22088728  0.84698241    -0.03500
C738        C  0.99125444  0.24381462  0.83533236    -0.06100
C739        C  0.00269290  0.24816485  0.79910389    -0.21200
C740        C  0.00950170  0.22967101  0.77447800     0.24500
C741        C  0.00379085  0.20685948  0.78577355    -0.18700
C742        C  0.99219383  0.20254017  0.82145273    -0.08700
C743        C  0.02151922  0.23428989  0.73614122    -0.19000
C744        C  0.03744195  0.21941545  0.72123102    -0.23800
C745        C  0.04725220  0.22129999  0.68044374     0.26600
C746        C  0.06853687  0.21030207  0.67190431    -0.20600
C747        C  0.07696239  0.20943495  0.63277127    -0.10200
C748        C  0.06397335  0.21917558  0.60133060    -0.10700
C749        C  0.04290452  0.23061137  0.61009586    -0.03700
C750        C  0.03464677  0.23169648  0.64914025    -0.18800
H751        H  0.98666134  0.25831795  0.85423885     0.10300
H752        H  0.00659154  0.26593526  0.79061171     0.10400
H753        H  0.00801669  0.19228170  0.76678993     0.10000
H754        H  0.98834362  0.18464827  0.82919613     0.11100
H755        H  0.01717130  0.25018735  0.72010705     0.11200
H756        H  0.04331593  0.20485264  0.73949534     0.13100
H757        H  0.07844510  0.20195183  0.69549841     0.09700
H758        H  0.09319024  0.20044780  0.62696758     0.11700
H759        H  0.03247519  0.23836599  0.58657810     0.08400
H760        H  0.01789951  0.23977472  0.65432870     0.11100
C761        C  0.96354360  0.22475015  0.10192645    -0.03500
C762        C  0.95017129  0.21742976  0.13471727    -0.06100
C763        C  0.95879378  0.21981731  0.17366322    -0.21200
C764        C  0.98090900  0.22940571  0.18033764     0.24500
C765        C  0.99363660  0.23781735  0.14765502    -0.18700
C766        C  0.98513355  0.23541833  0.10905505    -0.08700
C767        C  0.99084721  0.22985754  0.22122989    -0.19000
C768        C  0.01382443  0.22695095  0.22761524    -0.23800
C769        C  0.02430934  0.22461011  0.26773548     0.26600
C770        C  0.04302412  0.20917478  0.27271382    -0.20600
C771        C  0.05286276  0.20557404  0.31024330    -0.10200
C772        C  0.04459366  0.21781827  0.34347964    -0.10700
C773        C  0.02662261  0.23421232  0.33823140    -0.03700
C774        C  0.01637195  0.23743458  0.30063420    -0.18800
H775        H  0.93341037  0.20932888  0.13023370     0.10300
H776        H  0.94854469  0.21345867  0.19848762     0.10400
H777        H  0.01031196  0.24614509  0.15177729     0.10000
H778        H  0.99570896  0.24179175  0.08465002     0.11100
H779        H  0.97900333  0.23047397  0.24641732     0.11200
H780        H  0.02522748  0.22372956  0.20242761     0.13100
H781        H  0.04959140  0.19932144  0.24767023     0.09700
H782        H  0.06680770  0.19295582  0.31338413     0.11700
H783        H  0.01993861  0.24384920  0.36340897     0.08400
H784        H  0.00229843  0.24987085  0.29730532     0.11100
C785        C  0.14770542  0.18801031  0.38528879    -0.03500
C786        C  0.17079002  0.18395244  0.39723970    -0.06100
C787        C  0.18781044  0.17837131  0.36886426    -0.21200
C788        C  0.18212699  0.17712396  0.32813318     0.24500
C789        C  0.15936261  0.18293681  0.31616558    -0.18700
C790        C  0.14243960  0.18833291  0.34437703    -0.08700
C791        C  0.19878531  0.16602782  0.30001345    -0.19000
C792        C  0.19667461  0.16759643  0.26001948    -0.23800
C793        C  0.20698350  0.15054670  0.23177009     0.26600
C794        C  0.20631987  0.15556017  0.19070236    -0.20600
C795        C  0.21137553  0.13831508  0.16266023    -0.10200
C796        C  0.21682657  0.11559473  0.17522210    -0.10700
C797        C  0.21876376  0.11089271  0.21622612    -0.03700
C798        C  0.21397005  0.12813803  0.24420875    -0.18800
H799        H  0.17533184  0.18353061  0.42856972     0.10300
H800        H  0.20515868  0.17383117  0.37894496     0.10400
H801        H  0.15393432  0.18172238  0.28539998     0.10000
H802        H  0.12481922  0.19155213  0.33419497     0.11100
H803        H  0.21186122  0.15459186  0.31292964     0.11200
H804        H  0.18524411  0.18074167  0.24724594     0.13100
H805        H  0.20078933  0.17257424  0.18023707     0.09700
H806        H  0.20962036  0.14238790  0.13123349     0.11700
H807        H  0.22303969  0.09353343  0.22673810     0.08400
H808        H  0.21429010  0.12324139  0.27535562     0.11100
C809        C  0.11787298  0.12807043  0.51689220    -0.03500
C810        C  0.12895579  0.12757521  0.55430047    -0.06100
C811        C  0.14062539  0.10752275  0.56751141    -0.21200
C812        C  0.14132177  0.08747291  0.54386744     0.24500
C813        C  0.12978345  0.08778210  0.50685833    -0.18700
C814        C  0.11813916  0.10779570  0.49364827    -0.08700
C815        C  0.15545732  0.06712160  0.55727389    -0.19000
C816        C  0.15109742  0.04520481  0.54554343    -0.23800
C817        C  0.16559880  0.02483122  0.55731069     0.26600
C818        C  0.15517794  0.00284882  0.55887572    -0.20600
C819        C  0.16827683  0.98306590  0.56839800    -0.10200
C820        C  0.19229358  0.98470792  0.57592684    -0.10700
C821        C  0.20285281  0.00671122  0.57386174    -0.03700
C822        C  0.18963060  0.02660676  0.56477056    -0.18800
H823        H  0.12915869  0.14288272  0.57294057     0.10300
H824        H  0.14944489  0.10778355  0.59605143     0.10400
H825        H  0.13046722  0.07294275  0.48722474     0.10000
H826        H  0.11006386  0.10761715  0.46447901     0.11100
H827        H  0.16948617  0.07027064  0.57823011     0.11200
H828        H  0.13569519  0.04175723  0.52782924     0.13100
H829        H  0.13676078  0.00098181  0.55287989     0.09700
H830        H  0.15955247  0.96641528  0.56959608     0.11700
H831        H  0.22129879  0.00857898  0.57948282     0.08400
H832        H  0.19834320  0.04322282  0.56276612     0.11100
C833        C  0.22216782  0.58320761  0.07286654    -0.03500
C834        C  0.20207113  0.57048327  0.06340183    -0.06100
C835        C  0.18117387  0.58209399  0.05406265    -0.21200
C836        C  0.18020826  0.60651799  0.05361729     0.24500
C837        C  0.19975228  0.61905473  0.06625537    -0.18700
C838        C  0.22043754  0.60755707  0.07577824    -0.08700
C839        C  0.15931139  0.61901914  0.03825752    -0.19000
C840        C  0.16174706  0.63749469  0.01366313    -0.23800
C841        C  0.14266716  0.65292162  0.99902840     0.26600
C842        C  0.14802315  0.66889671  0.96861228    -0.20600
C843        C  0.13280971  0.68707847  0.95922290    -0.10200
C844        C  0.11176565  0.68967889  0.97988048    -0.10700
C845        C  0.10529816  0.67257011  0.00780209    -0.03700
C846        C  0.12069583  0.65433018  0.01750503    -0.18800
H847        H  0.20287574  0.55173224  0.06076930     0.10300
H848        H  0.16619330  0.57207908  0.04493972     0.10400
H849        H  0.19926026  0.63787574  0.06751977     0.10000
H850        H  0.23547338  0.61788439  0.08355607     0.11100
H851        H  0.14220383  0.61249367  0.04592160     0.11200
H852        H  0.17922760  0.64200825  0.00403351     0.13100
H853        H  0.16473476  0.66821222  0.95374393     0.09700
H854        H  0.13826097  0.70014294  0.93779244     0.11700
H855        H  0.08936924  0.67449133  0.02470701     0.08400
H856        H  0.11601195  0.64251258  0.04135651     0.11100
C857        C  0.41318104  0.77587942  0.47427909    -0.03500
C858        C  0.39085051  0.77838358  0.45789867    -0.06100
C859        C  0.37687199  0.79736643  0.46785818    -0.21200
C860        C  0.38472873  0.81422830  0.49475178     0.24500
C861        C  0.40784622  0.81281310  0.50861889    -0.18700
C862        C  0.42201544  0.79380090  0.49820766    -0.08700
C863        C  0.36710417  0.83058403  0.51134976    -0.19000
C864        C  0.37142970  0.84934497  0.53410840    -0.23800
C865        C  0.35177614  0.86206536  0.55303363     0.26600
C866        C  0.35001978  0.88641959  0.55056264    -0.20600
C867        C  0.32966591  0.89784418  0.56329360    -0.10200
C868        C  0.31097747  0.88503118  0.57917881    -0.10700
C869        C  0.31385738  0.86091673  0.58493247    -0.03700
C870        C  0.33393037  0.84959560  0.57193362    -0.18800
H871        H  0.38363023  0.76484253  0.43934772     0.10300
H872        H  0.35924227  0.79805267  0.45645141     0.10400
H873        H  0.41451925  0.82534719  0.52957627     0.10000
H874        H  0.43908787  0.79211690  0.51162304     0.11100
H875        H  0.34899836  0.82631572  0.50556608     0.11200
H876        H  0.38901263  0.85565832  0.53823419     0.13100
H877        H  0.36372532  0.89640744  0.53653805     0.09700
H878        H  0.32795844  0.91639841  0.55825248     0.11700
H879        H  0.29997851  0.85050706  0.59749008     0.08400
H880        H  0.33514921  0.83087404  0.57531905     0.11100
C881        C  0.31098214  0.61490757  0.16656748    -0.03500
C882        C  0.31716385  0.63780533  0.15668079    -0.06100
C883        C  0.32244637  0.65371331  0.18681553    -0.21200
C884        C  0.32141352  0.64709360  0.22724551     0.24500
C885        C  0.31335291  0.62466402  0.23689648    -0.18700
C886        C  0.30822109  0.60882387  0.20688994    -0.08700
C887        C  0.33225854  0.66249122  0.25754793    -0.19000
C888        C  0.33143481  0.65855674  0.29723668    -0.23800
C889        C  0.34805790  0.66903897  0.32594257     0.26600
C890        C  0.34301764  0.66826304  0.36694385    -0.20600
C891        C  0.35981015  0.67458725  0.39514767    -0.10200
C892        C  0.38210321  0.68138595  0.38277448    -0.10700
C893        C  0.38686466  0.68294800  0.34179414    -0.03700
C894        C  0.37009950  0.67687412  0.31370973    -0.18800
H895        H  0.31948999  0.64292303  0.12581980     0.10300
H896        H  0.32863496  0.67083438  0.17844750     0.10400
H897        H  0.31241813  0.61851418  0.26732339     0.10000
H898        H  0.30325686  0.59130857  0.21533399     0.11100
H899        H  0.34296679  0.67655877  0.24624174     0.11200
H900        H  0.31918622  0.64611148  0.30936352     0.13100
H901        H  0.32631949  0.66196306  0.37722062     0.09700
H902        H  0.35578505  0.67294016  0.42656783     0.11700
H903        H  0.40394481  0.68806674  0.33140683     0.08400
H904        H  0.37509008  0.67707120  0.28265374     0.11100
C905        C  0.21855144  0.38386376  0.56929597    -0.03500
C906        C  0.19754579  0.39640101  0.56573358    -0.06100
C907        C  0.17669763  0.38480195  0.55684102    -0.21200
C908        C  0.17668792  0.36063085  0.55091278     0.24500
C909        C  0.19733507  0.34803968  0.55737297    -0.18700
C910        C  0.21795508  0.35947917  0.56642155    -0.08700
C911        C  0.15553024  0.34840458  0.53673882    -0.19000
C912        C  0.15735428  0.33217842  0.50802887    -0.23800
C913        C  0.13885704  0.31574567  0.49534871     0.26600
C914        C  0.14408897  0.30068347  0.46375768    -0.20600
C915        C  0.12998848  0.28160281  0.45566558    -0.10200
C916        C  0.11004432  0.27736819  0.47847900    -0.10700
C917        C  0.10355377  0.29343623  0.50786582    -0.03700
C918        C  0.11792367  0.31246932  0.51646932    -0.18800
H919        H  0.19742929  0.41519017  0.56783555     0.10300
H920        H  0.16087054  0.39480157  0.55260745     0.10400
H921        H  0.19765626  0.32928625  0.55440805     0.10000
H922        H  0.23368153  0.34919762  0.56970552     0.11100
H923        H  0.13884238  0.35284402  0.54972214     0.11200
H924        H  0.17425169  0.32991157  0.49397301     0.13100
H925        H  0.16002006  0.30276046  0.44689483     0.09700
H926        H  0.13546490  0.26927044  0.43321783     0.11700
H927        H  0.08849023  0.29016962  0.52642221     0.08400
H928        H  0.11331040  0.32351850  0.54120585     0.11100
C929        C  0.32745821  0.49244069  0.57730140    -0.03500
C930        C  0.31487122  0.51156514  0.56208952    -0.06100
C931        C  0.32578119  0.53301985  0.55586660    -0.21200
C932        C  0.34953636  0.53582247  0.56429301     0.24500
C933        C  0.36210875  0.51672935  0.57971505    -0.18700
C934        C  0.35122154  0.49531908  0.58598307    -0.08700
C935        C  0.36047373  0.55894735  0.55738956    -0.19000
C936        C  0.38342747  0.56170660  0.55072902    -0.23800
C937        C  0.39416191  0.58449748  0.54083184     0.26600
C938        C  0.41407679  0.58477845  0.51670768    -0.20600
C939        C  0.42400964  0.60582589  0.50470289    -0.10200
C940        C  0.41453380  0.62711117  0.51729117    -0.10700
C941        C  0.39530399  0.62684844  0.54319706    -0.03700
C942        C  0.38512897  0.60574495  0.55473230    -0.18800
H943        H  0.29652616  0.51004055  0.55530050     0.10300
H944        H  0.31563820  0.54746696  0.54422555     0.10400
H945        H  0.38024235  0.51829821  0.58780739     0.10000
H946        H  0.36144035  0.48106742  0.59809978     0.11100
H947        H  0.34898934  0.57394642  0.55514887     0.11200
H948        H  0.39460669  0.54649159  0.54903274     0.13100
H949        H  0.42154429  0.56864881  0.50601962     0.09700
H950        H  0.43887241  0.60544576  0.48489672     0.11700
H951        H  0.38758772  0.64297332  0.55335617     0.08400
H952        H  0.37020075  0.60612942  0.57434591     0.11100
C953        C  0.27526691  0.43294909  0.44990478    -0.03500
C954        C  0.25603297  0.44695587  0.43960002    -0.06100
C955        C  0.25323337  0.45529618  0.40073031    -0.21200
C956        C  0.26989203  0.45033169  0.37157472     0.24500
C957        C  0.28878633  0.43567563  0.38138445    -0.18700
C958        C  0.29134118  0.42688951  0.42022209    -0.08700
C959        C  0.26763957  0.46158326  0.33184901    -0.19000
C960        C  0.28629352  0.47003688  0.31265461    -0.23800
C961        C  0.28500988  0.48437101  0.27578878     0.26600
C962        C  0.30321667  0.49986946  0.26835844    -0.20600
C963        C  0.30395956  0.51264584  0.23304652    -0.10200
C964        C  0.28663039  0.51006286  0.20380717    -0.10700
C965        C  0.26781361  0.49520285  0.21167138    -0.03700
C966        C  0.26700425  0.48239050  0.24745750    -0.18800
H967        H  0.24320587  0.45165790  0.46180135     0.10300
H968        H  0.23848881  0.46640992  0.39380127     0.10400
H969        H  0.30165969  0.43117943  0.35916212     0.10000
H970        H  0.30624656  0.41605118  0.42735747     0.11100
H971        H  0.25029511  0.46545390  0.32074959     0.11200
H972        H  0.30331284  0.46803216  0.32643136     0.13100
H973        H  0.31718181  0.50185775  0.28976762     0.09700
H974        H  0.31860312  0.52411226  0.22815334     0.11700
H975        H  0.25434844  0.49271406  0.18953531     0.08400
H976        H  0.25284937  0.47033045  0.25208401     0.11100
C977        C  0.27615334  0.53548694  0.94875008    -0.03500
C978        C  0.28399574  0.54815861  0.91543425    -0.06100
C979        C  0.28060645  0.53950679  0.87680130    -0.21200
C980        C  0.26940779  0.51808554  0.87090305     0.24500
C981        C  0.26054479  0.50613785  0.90417580    -0.18700
C982        C  0.26403742  0.51460795  0.94244634    -0.08700
C983        C  0.26752522  0.50824126  0.83011496    -0.19000
C984        C  0.26652640  0.48510974  0.82385848    -0.23800
C985        C  0.26703705  0.47426393  0.78393120     0.26600
C986        C  0.27684734  0.45198701  0.78057267    -0.20600
C987        C  0.27943870  0.44167713  0.74336001    -0.10200
C988        C  0.27171678  0.45319332  0.70878969    -0.10700
C989        C  0.26046332  0.47481983  0.71220399    -0.03700
C990        C  0.25826640  0.48539932  0.74955003    -0.18800
H991        H  0.29317393  0.56440351  0.91925169     0.10300
H992        H  0.28729922  0.54923031  0.85157146     0.10400
H993        H  0.25084112  0.49018017  0.90092511     0.10000
H994        H  0.25721349  0.50460618  0.96724680     0.11100
H995        H  0.26888085  0.52007931  0.80488191     0.11200
H996        H  0.26765670  0.47327895  0.84913167     0.13100
H997        H  0.28344500  0.44292680  0.80667903     0.09700
H998        H  0.28817002  0.42497894  0.74141326     0.11700
H999        H  0.25454409  0.48407418  0.68583613     0.08400
H1000       H  0.25001797  0.50231486  0.75136568     0.11100
C1001       C  0.30746751  0.07799327  0.08120878    -0.03500
C1002       C  0.31279890  0.09837478  0.10211438    -0.06100
C1003       C  0.33303239  0.11085616  0.09335736    -0.21200
C1004       C  0.34781831  0.10372440  0.06245715     0.24500
C1005       C  0.34306411  0.08277422  0.04267929    -0.18700
C1006       C  0.32317349  0.06985700  0.05235819    -0.08700
C1007       C  0.36720577  0.11919220  0.05010269    -0.19000
C1008       C  0.37128071  0.12443841  0.01153002    -0.23800
C1009       C  0.38668992  0.14394926  0.99945773     0.26600
C1010       C  0.37895224  0.15964749  0.97006941    -0.20600
C1011       C  0.39157460  0.17984665  0.96160932    -0.10200
C1012       C  0.41265687  0.18429949  0.98128735    -0.10700
C1013       C  0.42128654  0.16774738  0.00859869    -0.03700
C1014       C  0.40826670  0.14785200  0.01799807    -0.18800
H1015       H  0.30077637  0.10516179  0.12404752     0.10300
H1016       H  0.33638776  0.12690400  0.10906899     0.10400
H1017       H  0.35436712  0.07676032  0.01905262     0.10000
H1018       H  0.31918977  0.05443726  0.03530376     0.11100
H1019       H  0.37596264  0.12908309  0.07313182     0.11200
H1020       H  0.36051580  0.11657532  0.98867528     0.13100
H1021       H  0.36242755  0.15695720  0.95529058     0.09700
H1022       H  0.38444877  0.19245544  0.94074115     0.11700
H1023       H  0.43730729  0.17097041  0.02461367     0.08400
H1024       H  0.41475848  0.13582684  0.04039880     0.11100
C1025       C  0.30792548  0.35025113  0.66678524    -0.03500
C1026       C  0.31386590  0.32779966  0.65398306    -0.06100
C1027       C  0.31998285  0.31053664  0.68184356    -0.21200
C1028       C  0.31985090  0.31526749  0.72293493     0.24500
C1029       C  0.31216496  0.33728551  0.73564637    -0.18700
C1030       C  0.30634092  0.35454470  0.70786892    -0.08700
C1031       C  0.33132187  0.29854111  0.75089230    -0.19000
C1032       C  0.32893143  0.29930842  0.79088813    -0.23800
C1033       C  0.34565430  0.28814707  0.81915054     0.26600
C1034       C  0.33927474  0.28511376  0.85931193    -0.20600
C1035       C  0.35589122  0.27879400  0.88811748    -0.10200
C1036       C  0.37930838  0.27578103  0.87731531    -0.10700
C1037       C  0.38539809  0.27758211  0.83681687    -0.03700
C1038       C  0.36884368  0.28369565  0.80811967    -0.18800
H1039       H  0.31537078  0.32406723  0.62248631     0.10300
H1040       H  0.32597607  0.29380553  0.67118278     0.10400
H1041       H  0.31219625  0.34194475  0.76680698     0.10000
H1042       H  0.30172109  0.37170079  0.71855531     0.11100
H1043       H  0.34354971  0.28629093  0.73797664     0.11200
H1044       H  0.31517702  0.30981324  0.80379177     0.13100
H1045       H  0.32159224  0.28863561  0.86870450     0.09700
H1046       H  0.35068705  0.27767798  0.91908255     0.11700
H1047       H  0.40329316  0.27533040  0.82745339     0.08400
H1048       H  0.37473866  0.28637853  0.77784770     0.11100
C1049       C  0.33720162  0.48074834  0.06076540    -0.03500
C1050       C  0.36050906  0.48204376  0.04834635    -0.06100
C1051       C  0.37270129  0.46199110  0.03761640    -0.21200
C1052       C  0.36206504  0.44010491  0.03957211     0.24500
C1053       C  0.33855005  0.43878887  0.05117705    -0.18700
C1054       C  0.32625318  0.45893598  0.06161606    -0.08700
C1055       C  0.37598792  0.41930779  0.02823724    -0.19000
C1056       C  0.37118974  0.39755158  0.04090224    -0.23800
C1057       C  0.38499276  0.37653638  0.02983345     0.26600
C1058       C  0.38073663  0.35564807  0.05043147    -0.20600
C1059       C  0.39210119  0.33508118  0.03970007    -0.10200
C1060       C  0.40800539  0.33484069  0.00787112    -0.10700
C1061       C  0.41275746  0.35584152  0.98785769    -0.03700
C1062       C  0.40135436  0.37642681  0.99854423    -0.18800
H1063       H  0.36938845  0.49860816  0.04691417     0.10300
H1064       H  0.39066333  0.46356182  0.02826576     0.10400
H1065       H  0.32946900  0.42235489  0.05178561     0.10000
H1066       H  0.30827475  0.45739391  0.07083942     0.11100
H1067       H  0.39138578  0.42248353  0.01046767     0.11200
H1068       H  0.35678409  0.39491363  0.06129254     0.13100
H1069       H  0.36822168  0.35512318  0.07454461     0.09700
H1070       H  0.38786970  0.31921863  0.05565042     0.11700
H1071       H  0.42474844  0.35626019  0.96298768     0.08400
H1072       H  0.40496865  0.39186116  0.98115658     0.11100
C1073       C  0.91483362  0.27984511  0.98738266    -0.03500
C1074       C  0.92581455  0.29565455  0.01299349    -0.06100
C1075       C  0.91347384  0.31465362  0.02843099    -0.21200
C1076       C  0.89025037  0.31867959  0.01738325     0.24500
C1077       C  0.87982529  0.30386867  0.98943736    -0.18700
C1078       C  0.89190009  0.28446608  0.97500096    -0.08700
C1079       C  0.87614573  0.33625705  0.03899144    -0.19000
C1080       C  0.86051457  0.35001056  0.02042353    -0.23800
C1081       C  0.84327870  0.36451157  0.04210698     0.26600
C1082       C  0.83660505  0.38616264  0.02619178    -0.20600
C1083       C  0.81733233  0.39811918  0.04150461    -0.10200
C1084       C  0.80384058  0.38820749  0.07207434    -0.10700
C1085       C  0.81121799  0.36708299  0.08937619    -0.03700
C1086       C  0.83096548  0.35549836  0.07492142    -0.18800
H1087       H  0.94329026  0.29225522  0.02370201     0.10300
H1088       H  0.92177960  0.32572266  0.05018061     0.10400
H1089       H  0.86179907  0.30633053  0.98094902     0.10000
H1090       H  0.88290906  0.27237980  0.95579141     0.11100
H1091       H  0.87828167  0.33747101  0.07109371     0.11200
H1092       H  0.85986538  0.35020509  0.98804505     0.13100
H1093       H  0.84569726  0.39333258  0.00068282     0.09700
H1094       H  0.81179039  0.41411628  0.02705390     0.11700
H1095       H  0.80094869  0.35890285  0.11256615     0.08400
H1096       H  0.83547830  0.33863728  0.08733824     0.11100
C1097       C  0.65523221  0.37141468  0.05891245    -0.03500
C1098       C  0.63870736  0.36606379  0.08840938    -0.06100
C1099       C  0.61898530  0.35309366  0.07916783    -0.21200
C1100       C  0.61499050  0.34565148  0.04009237     0.24500
C1101       C  0.63131889  0.35119649  0.01028992    -0.18700
C1102       C  0.65137446  0.36382383  0.01972023    -0.08700
C1103       C  0.59398019  0.33156918  0.03191490    -0.19000
C1104       C  0.58222835  0.33280435  0.99731234    -0.23800
C1105       C  0.56005097  0.32026530  0.99084045     0.26600
C1106       C  0.54283323  0.33072508  0.96710549    -0.20600
C1107       C  0.52162975  0.31958196  0.96065114    -0.10200
C1108       C  0.51737364  0.29743035  0.97706728    -0.10700
C1109       C  0.53478816  0.28674590  0.00035394    -0.03700
C1110       C  0.55588906  0.29810753  0.00737941    -0.18800
H1111       H  0.64131434  0.37139310  0.11899116     0.10300
H1112       H  0.60673138  0.34892281  0.10264300     0.10400
H1113       H  0.62892845  0.34528628  0.98000069     0.10000
H1114       H  0.66389031  0.36756085  0.99645975     0.11100
H1115       H  0.58689604  0.32135044  0.05637385     0.11200
H1116       H  0.58790601  0.34489709  0.97431819     0.13100
H1117       H  0.54569920  0.34771849  0.95388893     0.09700
H1118       H  0.50868482  0.32819617  0.94223659     0.11700
H1119       H  0.53207956  0.26964483  0.01322530     0.08400
H1120       H  0.56905443  0.28937775  0.02513635     0.11100
C1121       C  0.60676471  0.18323426  0.48120696    -0.03500
C1122       C  0.59483356  0.16464448  0.49938746    -0.06100
C1123       C  0.60679500  0.14416997  0.51020461    -0.21200
C1124       C  0.63080188  0.14215844  0.50323737     0.24500
C1125       C  0.64212069  0.15986181  0.48180464    -0.18700
C1126       C  0.63026486  0.18015597  0.47099568    -0.08700
C1127       C  0.64454711  0.12270866  0.52099471    -0.19000
C1128       C  0.66449415  0.12736437  0.54046886    -0.23800
C1129       C  0.68117291  0.11000516  0.55720601     0.26600
C1130       C  0.69850092  0.11828858  0.58285766    -0.20600
C1131       C  0.71751166  0.10439219  0.59320123    -0.10200
C1132       C  0.71974872  0.08176353  0.57815452    -0.10700
C1133       C  0.70144668  0.07260104  0.55531166    -0.03700
C1134       C  0.68227988  0.08665957  0.54473619    -0.18800
H1135       H  0.57675348  0.16657640  0.50782679     0.10300
H1136       H  0.59767989  0.13062090  0.52634782     0.10400
H1137       H  0.66049010  0.15844123  0.47503256     0.10000
H1138       H  0.63986371  0.19402835  0.45657356     0.11100
H1139       H  0.63783827  0.10512006  0.51961175     0.11200
H1140       H  0.66923868  0.14553884  0.54401585     0.13100
H1141       H  0.69806124  0.13612027  0.59312672     0.09700
H1142       H  0.73130295  0.11192295  0.61090224     0.11700
H1143       H  0.70288395  0.05531805  0.54286539     0.08400
H1144       H  0.66934696  0.07972461  0.52467524     0.11100
C1145       C  0.37046354  0.38702089  0.54537478    -0.03500
C1146       C  0.39049030  0.39340121  0.56676631    -0.06100
C1147       C  0.41213972  0.38372345  0.55752613    -0.21200
C1148       C  0.41424059  0.36726153  0.52710061     0.24500
C1149       C  0.39445149  0.36153069  0.50457426    -0.18700
C1150       C  0.37278818  0.37131160  0.51364370    -0.08700
C1151       C  0.43727907  0.35642760  0.51964560    -0.19000
C1152       C  0.43965625  0.33445752  0.50656878    -0.23800
C1153       C  0.46254241  0.32293779  0.50063954     0.26600
C1154       C  0.46376986  0.29857795  0.50243899    -0.20600
C1155       C  0.48478557  0.28697508  0.49565649    -0.10200
C1156       C  0.50505264  0.29950666  0.48646560    -0.10700
C1157       C  0.50385043  0.32394667  0.48484901    -0.03700
C1158       C  0.48282782  0.33554934  0.49177072    -0.18800
H1159       H  0.38937291  0.40541809  0.59142220     0.10300
H1160       H  0.42718251  0.38857971  0.57502600     0.10400
H1161       H  0.39563489  0.34944676  0.48004804     0.10000
H1162       H  0.35776362  0.36607960  0.49645749     0.11100
H1163       H  0.45258748  0.36623085  0.52809206     0.11200
H1164       H  0.42421538  0.32396207  0.50210815     0.13100
H1165       H  0.44836844  0.28846321  0.50901957     0.09700
H1166       H  0.48503830  0.26814910  0.49700863     0.11700
H1167       H  0.51906549  0.33414250  0.47747109     0.08400
H1168       H  0.48244077  0.35430699  0.48903128     0.11100
C1169       C  0.56396989  0.23937708  0.60443500    -0.03500
C1170       C  0.57605368  0.25001198  0.63582866    -0.06100
C1171       C  0.56836518  0.24727397  0.67535549    -0.21200
C1172       C  0.54853632  0.23389699  0.68402347     0.24500
C1173       C  0.53747130  0.22212359  0.65278915    -0.18700
C1174       C  0.54496531  0.22498362  0.61359131    -0.08700
C1175       C  0.53897943  0.23315318  0.72527939    -0.19000
C1176       C  0.51590211  0.23165288  0.73196096    -0.23800
C1177       C  0.50500013  0.23400620  0.77174966     0.26600
C1178       C  0.48357755  0.24564366  0.77417485    -0.20600
C1179       C  0.47291234  0.24917433  0.81095804    -0.10200
C1180       C  0.48306409  0.24047420  0.84607893    -0.10700
C1181       C  0.50398158  0.22780167  0.84367744    -0.03700
C1182       C  0.51504661  0.22479173  0.80673847    -0.18800
H1183       H  0.59086306  0.26104793  0.62970891     0.10300
H1184       H  0.57737922  0.25629708  0.69898726     0.10400
H1185       H  0.52278685  0.21085864  0.65845397     0.10000
H1186       H  0.53564660  0.21601327  0.59024098     0.11100
H1187       H  0.55070677  0.23613796  0.75011406     0.11200
H1188       H  0.50409915  0.23127350  0.70668519     0.13100
H1189       H  0.47541519  0.25270493  0.74757917     0.09700
H1190       H  0.45682882  0.25904545  0.81207231     0.11700
H1191       H  0.51222996  0.22113869  0.87047309     0.08400
H1192       H  0.53135666  0.21534051  0.80553055     0.11100
C1193       C  0.53070243  0.24525646  0.35305808    -0.03500
C1194       C  0.53042010  0.22304347  0.33591592    -0.06100
C1195       C  0.51865573  0.21933990  0.29985200    -0.21200
C1196       C  0.50650598  0.23759107  0.28082771     0.24500
C1197       C  0.50638269  0.25965521  0.29860817    -0.18700
C1198       C  0.51835591  0.26341571  0.33417193    -0.08700
C1199       C  0.49605623  0.23375775  0.24081041    -0.19000
C1200       C  0.47867882  0.24696365  0.22551408    -0.23800
C1201       C  0.47088960  0.24538563  0.18329337     0.26600
C1202       C  0.44828724  0.25254799  0.17264117    -0.20600
C1203       C  0.44115106  0.25265524  0.13259306    -0.10200
C1204       C  0.45665289  0.24591213  0.10235413    -0.10700
C1205       C  0.47927565  0.23880751  0.11324606    -0.03700
C1206       C  0.48630371  0.23858618  0.15304206    -0.18800
H1207       H  0.53979187  0.20874629  0.34977288     0.10300
H1208       H  0.51924452  0.20223272  0.28653232     0.10400
H1209       H  0.49782250  0.27432745  0.28445139     0.10000
H1210       H  0.51809039  0.28071730  0.34677760     0.11100
H1211       H  0.50320539  0.21965087  0.22321399     0.11200
H1212       H  0.46987630  0.25951174  0.24433073     0.13100
H1213       H  0.43617624  0.25820158  0.19535389     0.09700
H1214       H  0.42368109  0.25836645  0.12528482     0.11700
H1215       H  0.49183728  0.23368850  0.09088843     0.08400
H1216       H  0.50410265  0.23378612  0.15976906     0.11100
C1217       C  0.63869013  0.27230945  0.37906794    -0.03500
C1218       C  0.63237577  0.26924841  0.33896591    -0.06100
C1219       C  0.64808437  0.27419103  0.30839523    -0.21200
C1220       C  0.67030869  0.28272914  0.31712755     0.24500
C1221       C  0.67734407  0.28396315  0.35732663    -0.18700
C1222       C  0.66164938  0.27870592  0.38806053    -0.08700
C1223       C  0.68447844  0.29219311  0.28367330    -0.19000
C1224       C  0.69877221  0.31051502  0.28813615    -0.23800
C1225       C  0.70699169  0.32510119  0.25416415     0.26600
C1226       C  0.71124800  0.34870292  0.26132086    -0.20600
C1227       C  0.71569952  0.36401830  0.22985333    -0.10200
C1228       C  0.71629832  0.35608416  0.19029952    -0.10700
C1229       C  0.71377673  0.33213392  0.18325980    -0.03700
C1230       C  0.70910998  0.31675079  0.21491082    -0.18800
H1231       H  0.61489048  0.26399334  0.33114807     0.10300
H1232       H  0.64230633  0.27275786  0.27776434     0.10400
H1233       H  0.69464040  0.28971852  0.36514651     0.10000
H1234       H  0.66703103  0.28102828  0.41871641     0.11100
H1235       H  0.67997975  0.28654386  0.25385189     0.11200
H1236       H  0.70157576  0.31738665  0.31780963     0.13100
H1237       H  0.70996333  0.35559599  0.29122636     0.09700
H1238       H  0.71782834  0.38230716  0.23645263     0.11700
H1239       H  0.71428152  0.32545905  0.15316249     0.08400
H1240       H  0.70664849  0.29852202  0.20839103     0.11100
C1241       C  0.91328508  0.68781099  0.48289852    -0.03500
C1242       C  0.89109766  0.68624557  0.46564406    -0.06100
C1243       C  0.87604054  0.66824475  0.47615111    -0.21200
C1244       C  0.88264153  0.65127875  0.50428963     0.24500
C1245       C  0.90551049  0.65175541  0.51949769    -0.18700
C1246       C  0.92074671  0.66987498  0.50872294    -0.08700
C1247       C  0.86411458  0.63555925  0.51992744    -0.19000
C1248       C  0.86742678  0.61574764  0.54106398    -0.23800
C1249       C  0.84714597  0.60244353  0.55689359     0.26600
C1250       C  0.84651841  0.57803411  0.55464680    -0.20600
C1251       C  0.82618896  0.56581682  0.56492250    -0.10200
C1252       C  0.80627392  0.57784915  0.57806528    -0.10700
C1253       C  0.80774223  0.60206768  0.58338788    -0.03700
C1254       C  0.82786504  0.61418022  0.57296673    -0.18800
H1255       H  0.88482493  0.69983341  0.44579297     0.10300
H1256       H  0.85862872  0.66831842  0.46376069     0.10400
H1257       H  0.91117533  0.63914961  0.54156356     0.10000
H1258       H  0.93759633  0.67087991  0.52305535     0.11100
H1259       H  0.84629852  0.64079431  0.51348825     0.11200
H1260       H  0.88479387  0.60866846  0.54516685     0.13100
H1261       H  0.86127561  0.56855731  0.54284338     0.09700
H1262       H  0.82559289  0.54720864  0.56023262     0.11700
H1263       H  0.79286127  0.61188669  0.59388821     0.08400
H1264       H  0.82808722  0.63289844  0.57641382     0.11100
C1265       C  0.61600241  0.33240965  0.51065783    -0.03500
C1266       C  0.62598019  0.33392271  0.54881696    -0.06100
C1267       C  0.63816012  0.35386204  0.56018668    -0.21200
C1268       C  0.64065662  0.37275598  0.53377991     0.24500
C1269       C  0.63049675  0.37130629  0.49567363    -0.18700
C1270       C  0.61821893  0.35145054  0.48440651    -0.08700
C1271       C  0.65487208  0.39307563  0.54635363    -0.19000
C1272       C  0.65335691  0.41429447  0.52914601    -0.23800
C1273       C  0.66740060  0.43460260  0.54196657     0.26600
C1274       C  0.65849550  0.45702784  0.53508546    -0.20600
C1275       C  0.67089034  0.47663261  0.54703976    -0.10200
C1276       C  0.69277851  0.47429433  0.56533572    -0.10700
C1277       C  0.70213610  0.45191245  0.57108807    -0.03700
C1278       C  0.68951540  0.43221185  0.55972091    -0.18800
H1279       H  0.62469593  0.31954724  0.56971022     0.10300
H1280       H  0.64588377  0.35442517  0.58962639     0.10400
H1281       H  0.63255251  0.38506668  0.47386651     0.10000
H1282       H  0.61108806  0.35074716  0.45455115     0.11100
H1283       H  0.66635605  0.39059711  0.57174598     0.11200
H1284       H  0.64037303  0.41748340  0.50626172     0.13100
H1285       H  0.64167929  0.45938574  0.52099314     0.09700
H1286       H  0.66335726  0.49369288  0.54185112     0.11700
H1287       H  0.71898905  0.44963727  0.58506271     0.08400
H1288       H  0.69724721  0.41522363  0.56441835     0.11100
C1289       C  0.65658386  0.58070569  0.54408110    -0.03500
C1290       C  0.63580754  0.57465190  0.56355512    -0.06100
C1291       C  0.61471891  0.58479425  0.55220638    -0.21200
C1292       C  0.61387427  0.60144850  0.52153148     0.24500
C1293       C  0.63450379  0.60706858  0.50112171    -0.18700
C1294       C  0.65566093  0.59675411  0.51230014    -0.08700
C1295       C  0.59106310  0.61217563  0.51158640    -0.19000
C1296       C  0.58860696  0.63340910  0.49483914    -0.23800
C1297       C  0.56548085  0.64426398  0.48735097     0.26600
C1298       C  0.56358759  0.66861068  0.48559541    -0.20600
C1299       C  0.54199149  0.67934711  0.47913962    -0.10200
C1300       C  0.52185293  0.66589183  0.47395877    -0.10700
C1301       C  0.52386625  0.64151063  0.47510359    -0.03700
C1302       C  0.54539390  0.63082305  0.48148453    -0.18800
H1303       H  0.63585140  0.56226611  0.58801910     0.10300
H1304       H  0.59904326  0.57996419  0.56808647     0.10400
H1305       H  0.63438221  0.61930608  0.47649050     0.10000
H1306       H  0.67135196  0.60172252  0.49663169     0.11100
H1307       H  0.57570642  0.60279849  0.52126214     0.11200
H1308       H  0.60391527  0.64383172  0.48875655     0.13100
H1309       H  0.57883089  0.67936074  0.48962462     0.09700
H1310       H  0.54109786  0.69816146  0.47809001     0.11700
H1311       H  0.50879989  0.63057791  0.47068014     0.08400
H1312       H  0.54620528  0.61202661  0.48110091     0.11100
C1313       C  0.75263465  0.53200890  0.45435568    -0.03500
C1314       C  0.76731410  0.51296366  0.44635944    -0.06100
C1315       C  0.77069266  0.50524495  0.40750853    -0.21200
C1316       C  0.75934939  0.51611635  0.37541694     0.24500
C1317       C  0.74544359  0.53592846  0.38301915    -0.18700
C1318       C  0.74215591  0.54379958  0.42219122    -0.08700
C1319       C  0.76194757  0.50539532  0.33526410    -0.19000
C1320       C  0.74680562  0.50883644  0.30515439    -0.23800
C1321       C  0.74635323  0.49494020  0.26771061     0.26600
C1322       C  0.72634266  0.49664104  0.24395917    -0.20600
C1323       C  0.72364857  0.48269577  0.21050654    -0.10200
C1324       C  0.74105376  0.46682576  0.19936033    -0.10700
C1325       C  0.76168534  0.46573937  0.22168276    -0.03700
C1326       C  0.76431151  0.47960191  0.25577133    -0.18800
H1327       H  0.77604336  0.50371181  0.47033535     0.10300
H1328       H  0.78170561  0.49018103  0.40269293     0.10400
H1329       H  0.73696377  0.54535947  0.35908691     0.10000
H1330       H  0.73096899  0.55867661  0.42738333     0.11100
H1331       H  0.77551444  0.49239613  0.33215292     0.11200
H1332       H  0.73252176  0.52094081  0.30937328     0.13100
H1333       H  0.71232783  0.50837729  0.25193924     0.09700
H1334       H  0.70770716  0.48418377  0.19340446     0.11700
H1335       H  0.77540080  0.45371578  0.21350747     0.08400
H1336       H  0.78030101  0.47802932  0.27251213     0.11100
C1337       C  0.74536990  0.49872252  0.70607758    -0.03500
C1338       C  0.76768160  0.49025428  0.71561926    -0.06100
C1339       C  0.77121606  0.47672444  0.75009952    -0.21200
C1340       C  0.75249320  0.47106166  0.77524587     0.24500
C1341       C  0.73024021  0.47957672  0.76568319    -0.18700
C1342       C  0.72674904  0.49319654  0.73164166    -0.08700
C1343       C  0.75680644  0.45820804  0.81315476    -0.19000
C1344       C  0.74038818  0.44533613  0.83163198    -0.23800
C1345       C  0.74277499  0.43662166  0.87328720     0.26600
C1346       C  0.72932468  0.41764077  0.88630960    -0.20600
C1347       C  0.72917338  0.41094968  0.92663563    -0.10200
C1348       C  0.74203858  0.42355378  0.95470363    -0.10700
C1349       C  0.75584767  0.44218225  0.94146351    -0.03700
C1350       C  0.75628171  0.44860741  0.90132336    -0.18800
H1351       H  0.78236675  0.49407567  0.69651637     0.10300
H1352       H  0.78860526  0.47064591  0.75716146     0.10400
H1353       H  0.71553795  0.47631823  0.78501848     0.10000
H1354       H  0.70929977  0.49939259  0.72540043     0.11100
H1355       H  0.77388007  0.45993607  0.82663775     0.11200
H1356       H  0.72418488  0.44167559  0.81628399     0.13100
H1357       H  0.71852178  0.40831421  0.86537782     0.09700
H1358       H  0.71823091  0.39665913  0.93611282     0.11700
H1359       H  0.76596634  0.45221400  0.96244384     0.08400
H1360       H  0.76632460  0.46371667  0.89282577     0.11100
C1361       C  0.61613238  0.77858303  0.98099779    -0.03500
C1362       C  0.60409802  0.79989858  0.97736667    -0.06100
C1363       C  0.61518484  0.82094378  0.98685430    -0.21200
C1364       C  0.63824105  0.82086812  0.00078645     0.24500
C1365       C  0.65057054  0.79976300  0.00198808    -0.18700
C1366       C  0.63972773  0.77897651  0.99216893    -0.08700
C1367       C  0.64972309  0.84251244  0.01456642    -0.19000
C1368       C  0.66263466  0.84210950  0.04818023    -0.23800
C1369       C  0.67986446  0.85997528  0.06048463     0.26600
C1370       C  0.69562702  0.85367808  0.09072298    -0.20600
C1371       C  0.71494018  0.86742226  0.09891301    -0.10200
C1372       C  0.71876214  0.88812643  0.07766262    -0.10700
C1373       C  0.70198279  0.89565655  0.04986617    -0.03700
C1374       C  0.68269722  0.88161273  0.04109236    -0.18800
H1375       H  0.58595111  0.80023186  0.96871845     0.10300
H1376       H  0.60548455  0.83710557  0.98502080     0.10400
H1377       H  0.66862533  0.79928226  0.01124539     0.10000
H1378       H  0.64975652  0.76304616  0.99474878     0.11100
H1379       H  0.64839078  0.85801294  0.99613159     0.11200
H1380       H  0.66225502  0.82627946  0.06611833     0.13100
H1381       H  0.69386510  0.83724709  0.10642174     0.09700
H1382       H  0.72764060  0.86120293  0.12040075     0.11700
H1383       H  0.70470447  0.91146392  0.03278269     0.08400
H1384       H  0.67078039  0.88730556  0.01804968     0.11100
C1385       C  0.50632467  0.67171706  0.96473298    -0.03500
C1386       C  0.49934574  0.65387145  0.93895894    -0.06100
C1387       C  0.47767545  0.64336724  0.94344117    -0.21200
C1388       C  0.46274772  0.65008530  0.97428235     0.24500
C1389       C  0.46953604  0.66816759  0.99986964    -0.18700
C1390       C  0.49111836  0.67897024  0.99497740    -0.08700
C1391       C  0.44041246  0.63763750  0.97916718    -0.19000
C1392       C  0.43103740  0.63366672  0.01518898    -0.23800
C1393       C  0.41034162  0.61885657  0.02164092     0.26600
C1394       C  0.40811550  0.60757967  0.05850224    -0.20600
C1395       C  0.38870768  0.59400903  0.06680063    -0.10200
C1396       C  0.37072077  0.59170236  0.03865139    -0.10700
C1397       C  0.37297190  0.60281549  0.00141927    -0.03700
C1398       C  0.39268910  0.61622971  0.99287737    -0.18800
H1399       H  0.51056923  0.64816999  0.91498400     0.10300
H1400       H  0.47274484  0.62961069  0.92323174     0.10400
H1401       H  0.45813419  0.67413652  0.02336765     0.10000
H1402       H  0.49600889  0.69280372  0.01504711     0.11100
H1403       H  0.43288133  0.62955669  0.95302187     0.11200
H1404       H  0.44004070  0.63983410  0.04154744     0.13100
H1405       H  0.42142775  0.60937349  0.08114973     0.09700
H1406       H  0.38748781  0.58594820  0.09598642     0.11700
H1407       H  0.35930003  0.60157867  0.97932201     0.08400
H1408       H  0.39367157  0.62509218  0.96438468     0.11100
C1409       C  0.56556295  0.71959605  0.09777671    -0.03500
C1410       C  0.57665411  0.70690039  0.12829299    -0.06100
C1411       C  0.56769826  0.70703563  0.16707638    -0.21200
C1412       C  0.54765474  0.72000943  0.17627442     0.24500
C1413       C  0.53704205  0.73334566  0.14600889    -0.18700
C1414       C  0.54593093  0.73316259  0.10731733    -0.08700
C1415       C  0.53705328  0.71729759  0.21640533    -0.19000
C1416       C  0.52092857  0.73184627  0.23163227    -0.23800
C1417       C  0.50853850  0.72666026  0.26942457     0.26600
C1418       C  0.50048991  0.74493795  0.29340225    -0.20600
C1419       C  0.48891951  0.74025795  0.32932041    -0.10200
C1420       C  0.48482158  0.71717300  0.34142302    -0.10700
C1421       C  0.49212047  0.69897068  0.31648604    -0.03700
C1422       C  0.50380421  0.70363719  0.28098357    -0.18800
H1423       H  0.59178857  0.69627334  0.12197284     0.10300
H1424       H  0.57613230  0.69649232  0.18978287     0.10400
H1425       H  0.52128924  0.74315380  0.15141785     0.10000
H1426       H  0.53696526  0.74321769  0.08457781     0.11100
H1427       H  0.54258614  0.70231765  0.23395211     0.11200
H1428       H  0.51680934  0.74810367  0.21657770     0.13100
H1429       H  0.50356699  0.76284037  0.28469858     0.09700
H1430       H  0.48341815  0.75465969  0.34775195     0.11700
H1431       H  0.48914637  0.68096949  0.32464901     0.08400
H1432       H  0.50889511  0.68914012  0.26245739     0.11100
C1433       C  0.54600611  0.72719114  0.83855658    -0.03500
C1434       C  0.55855002  0.72327620  0.80341771    -0.06100
C1435       C  0.54799499  0.72661643  0.76631698    -0.21200
C1436       C  0.52447647  0.73311094  0.76360837     0.24500
C1437       C  0.51203582  0.73768942  0.79878061    -0.18700
C1438       C  0.52283626  0.73497061  0.83600934    -0.08700
C1439       C  0.51370804  0.73446440  0.72349073    -0.19000
C1440       C  0.49151413  0.72835551  0.71571156    -0.23800
C1441       C  0.48242427  0.72575381  0.67431589     0.26600
C1442       C  0.45830064  0.72641210  0.66706984    -0.20600
C1443       C  0.44948164  0.72348397  0.62832187    -0.10200
C1444       C  0.46471146  0.71981701  0.59619873    -0.10700
C1445       C  0.48873979  0.71862153  0.60380476    -0.03700
C1446       C  0.49744739  0.72132962  0.64217668    -0.18800
H1447       H  0.57636108  0.71707971  0.80472659     0.10300
H1448       H  0.55796227  0.72312965  0.73960302     0.10400
H1449       H  0.49401082  0.74316139  0.79758210     0.10000
H1450       H  0.51274713  0.73775296  0.86282774     0.11100
H1451       H  0.52529989  0.73888731  0.69915485     0.11200
H1452       H  0.47987727  0.72422735  0.74020848     0.13100
H1453       H  0.44628568  0.72934841  0.69138906     0.09700
H1454       H  0.43087835  0.72438151  0.62344179     0.11700
H1455       H  0.50099814  0.71527906  0.57999057     0.08400
H1456       H  0.51599338  0.71937078  0.64634000     0.11100
C1457       C  0.71588430  0.60801257  0.67572894    -0.03500
C1458       C  0.71322286  0.63138304  0.66402640    -0.06100
C1459       C  0.70864160  0.64856006  0.69241847    -0.21200
C1460       C  0.70692866  0.64283658  0.73310526     0.24500
C1461       C  0.71082206  0.61959701  0.74493892    -0.18700
C1462       C  0.71525352  0.60244818  0.71658652    -0.08700
C1463       C  0.69782253  0.66064279  0.76121835    -0.19000
C1464       C  0.69869520  0.65843995  0.80126945    -0.23800
C1465       C  0.68356882  0.67186343  0.82901409     0.26600
C1466       C  0.66307350  0.68303735  0.81587192    -0.20600
C1467       C  0.64653812  0.69071534  0.84326368    -0.10200
C1468       C  0.65007559  0.68756627  0.88432894    -0.10700
C1469       C  0.67128642  0.67824544  0.89774928    -0.03700
C1470       C  0.68781943  0.67030430  0.87026497    -0.18800
H1471       H  0.71352297  0.63623414  0.63278789     0.10300
H1472       H  0.70551837  0.66625000  0.68237952     0.10400
H1473       H  0.70915424  0.61417508  0.77570163     0.10000
H1474       H  0.71732496  0.58461185  0.72662835     0.11100
H1475       H  0.68875543  0.67536658  0.74800612     0.11200
H1476       H  0.70961628  0.64503034  0.81450540     0.13100
H1477       H  0.65870719  0.68436052  0.78461914     0.09700
H1478       H  0.63025728  0.69783504  0.83224319     0.11700
H1479       H  0.67427973  0.67538524  0.92928624     0.08400
H1480       H  0.70335610  0.66168026  0.88128020     0.11100
C1481       C  0.60950471  0.62666623  0.00570025    -0.03500
C1482       C  0.62019914  0.62474732  0.04327923    -0.06100
C1483       C  0.63032835  0.60379784  0.05568222    -0.21200
C1484       C  0.62999357  0.58419655  0.03100074     0.24500
C1485       C  0.61835486  0.58573440  0.99409295    -0.18700
C1486       C  0.60812675  0.60674832  0.98169021    -0.08700
C1487       C  0.64368186  0.56336563  0.04353459    -0.19000
C1488       C  0.64088899  0.54191520  0.02841777    -0.23800
C1489       C  0.65565369  0.52188619  0.04099203     0.26600
C1490       C  0.64611915  0.49947875  0.04139671    -0.20600
C1491       C  0.65949344  0.48033874  0.05361259    -0.10200
C1492       C  0.68288872  0.48314325  0.06487106    -0.10700
C1493       C  0.69265307  0.50549860  0.06330791    -0.03700
C1494       C  0.67916995  0.52468750  0.05161446    -0.18800
H1495       H  0.62150303  0.63970519  0.06260677     0.10300
H1496       H  0.63910939  0.60311821  0.08425658     0.10400
H1497       H  0.61805008  0.57119733  0.97381736     0.10000
H1498       H  0.60022136  0.60770090  0.95241087     0.11100
H1499       H  0.65648659  0.56582969  0.06694833     0.11200
H1500       H  0.62677103  0.53853839  0.00780375     0.13100
H1501       H  0.62814760  0.49683534  0.03288117     0.09700
H1502       H  0.65151016  0.46330767  0.05414365     0.11700
H1503       H  0.71063741  0.50822076  0.07163011     0.08400
H1504       H  0.68727700  0.54163668  0.05044602     0.11100
loop_ 
_geom_bond_atom_site_label_1 
_geom_bond_atom_site_label_2 
_geom_bond_distance 
_geom_bond_site_symmetry_2 
_ccdc_geom_bond_type 
Fe1          O17   2.076       .  S
Fe1           O7   2.053   1_556  S
Fe1          O14   2.069       .  S
Fe1           O6   2.088       .  S
Fe1          O12   1.987       .  S
Fe2           O5   2.074       .  S
Fe2           O9   2.054       .  S
Fe2          O13   2.054       .  S
Fe2          O18   2.047       .  S
Fe2          O12   1.974       .  S
Fe3          O21   2.053   1_556  S
Fe3           O8   2.087       .  S
Fe3          O15   2.075   1_556  S
Fe3           O4   2.050       .  S
Fe3          O12   1.979       .  S
O4           C11   1.268       .  A
O5           C19   1.268       .  A
O6           C11   1.274       .  A
O7           C10   1.267       .  A
O8           C20   1.274       .  A
O9           C22   1.270       .  A
C10          O15   1.271       .  A
C10        C1409   1.483       .  S
C11        C1361   1.488       .  S
O13          C16   1.265       .  A
O14          C16   1.267       .  A
C16        C1433   1.473       .  S
O17          C22   1.273       .  A
O18          C20   1.268       .  A
C19          O21   1.265   1_556  A
C19        C1481   1.484   1_556  S
C20        C1468   1.475       .  S
C22        C1385   1.476       .  S
Fe23         O39   2.109       .  S
Fe23         O29   2.043       .  S
Fe23         O36   2.073       .  S
Fe23         O28   2.102       .  S
Fe23         O34   1.965       .  S
Fe24         O27   2.060       .  S
Fe24         O31   2.047       .  S
Fe24         O35   2.059       .  S
Fe24         O40   2.051       .  S
Fe24         O34   1.952       .  S
Fe25         O43   2.061       .  S
Fe25         O30   2.105       .  S
Fe25         O37   2.097       .  S
Fe25         O26   2.047       .  S
Fe25         O34   1.959       .  S
O26          C33   1.267       .  A
O27          C41   1.264       .  A
O28          C33   1.277       .  A
O29          C32   1.268       .  A
O30          C42   1.282       .  A
O31          C44   1.272       .  A
C32          O37   1.276       .  A
C32        C1313   1.484       .  S
C33        C1252   1.489       .  S
O35          C38   1.265       .  A
O36          C38   1.268       .  A
C38        C1337   1.486       .  S
O39          C44   1.281       .  A
O40          C42   1.274       .  A
C41          O43   1.264       .  A
C41        C1289   1.482       .  S
C42        C1457   1.484       .  S
C44        C1276   1.480       .  S
Fe45         O61   2.074       .  S
Fe45         O51   2.089       .  S
Fe45         O58   2.096       .  S
Fe45         O50   2.047       .  S
Fe45         O56   1.959       .  S
Fe46         O49   2.047       .  S
Fe46         O53   2.066       .  S
Fe46         O57   2.051       .  S
Fe46         O62   2.073       .  S
Fe46         O56   1.952       .  S
Fe47         O65   2.110       .  S
Fe47         O52   2.062       .  S
Fe47         O59   2.051       .  S
Fe47         O48   2.100       .  S
Fe47         O56   1.956       .  S
O48          C55   1.277       .  A
O49          C63   1.272       .  A
O50          C55   1.270       .  A
O51          C54   1.273       .  A
O52          C64   1.265       .  A
O53          C66   1.266       .  A
C54          O59   1.268       .  A
C54        C1121   1.483       .  S
C55        C1169   1.484       .  S
O57          C60   1.273       .  A
O58          C60   1.279       .  A
C60        C1156   1.483       .  S
O61          C66   1.268       .  A
O62          C64   1.266       .  A
C63          O65   1.281       .  A
C63        C1217   1.481       .  S
C64        C1265   1.486       .  S
C66        C1193   1.482       .  S
Fe67         O83   2.078       .  S
Fe67         O73   2.091       .  S
Fe67         O80   2.105       .  S
Fe67         O72   2.043       .  S
Fe67         O78   1.955       .  S
Fe68         O71   2.045       .  S
Fe68         O75   2.066       .  S
Fe68         O79   2.049       .  S
Fe68         O84   2.067       .  S
Fe68         O78   1.945       .  S
Fe69         O87   2.113       .  S
Fe69         O74   2.065       .  S
Fe69         O81   2.060       .  S
Fe69         O70   2.102       .  S
Fe69         O78   1.950       .  S
O70          C77   1.278   1_554  A
O71          C85   1.273       .  A
O72          C77   1.269   1_554  A
O73          C76   1.274       .  A
O74          C86   1.264       .  A
O75          C88   1.267       .  A
C76          O81   1.268       .  A
C76        C1084   1.482       .  S
C77        C1348   1.480       .  S
O79          C82   1.271       .  A
O80          C82   1.279       .  A
C82        C1492   1.482       .  S
O83          C88   1.269       .  A
O84          C86   1.265       .  A
C85          O87   1.283       .  A
C85        C1228   1.485       .  S
C86        C1097   1.481       .  S
C88        C1324   1.478       .  S
Fe89        O105   2.086       .  S
Fe89         O95   2.044   1_556  S
Fe89        O102   2.072       .  S
Fe89         O94   2.093       .  S
Fe89        O100   1.979       .  S
Fe90         O93   2.072       .  S
Fe90         O97   2.053       .  S
Fe90        O101   2.060       .  S
Fe90        O106   2.045       .  S
Fe90        O100   1.965       .  S
Fe91        O109   2.054   1_556  S
Fe91         O96   2.100       .  S
Fe91        O103   2.099   1_556  S
Fe91         O92   2.051       .  S
Fe91        O100   1.973       .  S
O92          C99   1.265       .  A
O93         C107   1.268       .  A
O94          C99   1.273       .  A
O95          C98   1.268       .  A
O96         C108   1.277       .  A
O97         C110   1.269       .  A
C98         O103   1.277       .  A
C98        C1204   1.488       .  S
C99        C1012   1.479       .  S
O101        C104   1.268       .  A
O102        C104   1.270       .  A
C104       C1180   1.476       .  S
O105        C110   1.274       .  A
O106        C108   1.269       .  A
C107        O109   1.265   1_556  A
C107       C1060   1.485   1_556  S
C108       C1036   1.484       .  S
C110       C1108   1.482       .  S
Fe111       O127   2.085       .  S
Fe111       O117   2.053       .  S
Fe111       O124   2.069       .  S
Fe111       O116   2.085       .  S
Fe111       O122   1.987       .  S
Fe112       O115   2.057       .  S
Fe112       O119   2.060       .  S
Fe112       O123   2.043       .  S
Fe112       O128   2.052       .  S
Fe112       O122   1.969       .  S
Fe113       O131   2.061       .  S
Fe113       O118   2.091       .  S
Fe113       O125   2.083       .  S
Fe113       O114   2.051       .  S
Fe113       O122   1.979       .  S
O114        C121   1.268       .  A
O115        C129   1.264       .  A
O116        C121   1.272       .  A
O117        C120   1.268       .  A
O118        C130   1.276       .  A
O119        C132   1.272       .  A
C120        O125   1.273       .  A
C120        C953   1.479       .  S
C121        C905   1.485       .  S
O123        C126   1.262       .  A
O124        C126   1.266       .  A
C126        C988   1.472       .  S
O127        C132   1.276       .  A
O128        C130   1.270       .  A
C129        O131   1.265       .  A
C129       C1145   1.484       .  S
C130       C1025   1.480       .  S
C132        C929   1.487       .  S
Fe133       O149   2.065       .  S
Fe133       O139   2.092       .  S
Fe133       O146   2.096       .  S
Fe133       O138   2.037       .  S
Fe133       O144   1.963       .  S
Fe134       O137   2.044       .  S
Fe134       O141   2.069       .  S
Fe134       O145   2.046       .  S
Fe134       O150   2.069       .  S
Fe134       O144   1.949       .  S
Fe135       O153   2.102       .  S
Fe135       O140   2.060       .  S
Fe135       O147   2.049       .  S
Fe135       O136   2.106       .  S
Fe135       O144   1.960       .  S
O136        C143   1.279       .  A
O137        C151   1.271       .  A
O138        C143   1.269       .  A
O139        C142   1.271       .  A
O140        C152   1.266       .  A
O141        C154   1.269       .  A
C142        O147   1.266       .  A
C142        C857   1.480       .  S
C143       C1444   1.484       .  S
O145        C148   1.269       .  A
O146        C148   1.276       .  A
C148       C1300   1.483       .  S
O149        C154   1.269       .  A
O150        C152   1.267       .  A
C151        O153   1.279       .  A
C151        C892   1.478       .  S
C152        C940   1.482       .  S
C154       C1420   1.482       .  S
Fe155       O171   2.077       .  S
Fe155       O161   2.093       .  S
Fe155       O168   2.105       .  S
Fe155       O160   2.043       .  S
Fe155       O166   1.963       .  S
Fe156       O159   2.040       .  S
Fe156       O163   2.045       .  S
Fe156       O167   2.047       .  S
Fe156       O172   2.048       .  S
Fe156       O166   1.946       .  S
Fe157       O175   2.109       .  S
Fe157       O162   2.067       .  S
Fe157       O169   2.045       .  S
Fe157       O158   2.095   1_554  S
Fe157       O166   1.962       .  S
O158        C165   1.277       .  A
O159        C173   1.273       .  A
O160        C165   1.269   1_554  A
O161        C164   1.274       .  A
O162        C174   1.263       .  A
O163        C176   1.262       .  A
C164        O169   1.267       .  A
C164        C833   1.484       .  S
C165        C977   1.484       .  S
O167        C170   1.273       .  A
O168        C170   1.281       .  A
C170       C1049   1.482       .  S
O171        C176   1.267       .  A
O172        C174   1.261       .  A
C173        O175   1.282       .  A
C173        C881   1.477       .  S
C174       C1396   1.481       .  S
C176        C964   1.480       .  S
Fe177       O193   2.095       .  S
Fe177       O183   2.043       .  S
Fe177       O190   2.067       .  S
Fe177       O182   2.092       .  S
Fe177       O188   1.975       .  S
Fe178       O181   2.072       .  S
Fe178       O185   2.045       .  S
Fe178       O189   2.060       .  S
Fe178       O194   2.040       .  S
Fe178       O188   1.958       .  S
Fe179       O197   2.059       .  S
Fe179       O184   2.103       .  S
Fe179       O191   2.092       .  S
Fe179       O180   2.046       .  S
Fe179       O188   1.966       .  S
O180        C187   1.266       .  A
O181        C195   1.267       .  A
O182        C187   1.272       .  A
O183        C186   1.268       .  A
O184        C196   1.278       .  A
O185        C198   1.270       .  A
C186        O191   1.276       .  A
C186        C748   1.482       .  S
C187        C916   1.473       .  S
O189        C192   1.267       .  A
O190        C192   1.268       .  A
C192        C772   1.477       .  S
O193        C198   1.277       .  A
O194        C196   1.269       .  A
C195        O197   1.265       .  A
C195        C809   1.486       .  S
C196        C785   1.481       .  S
C198        C724   1.484       .  S
Fe199       O215   2.094   1_545  S
Fe199       O205   2.057       .  S
Fe199       O212   2.088       .  S
Fe199       O204   2.095       .  S
Fe199       O210   1.969       .  S
Fe200       O203   2.067       .  S
Fe200       O207   2.054       .  S
Fe200       O211   2.052       .  S
Fe200       O216   2.051       .  S
Fe200       O210   1.953       .  S
Fe201       O219   2.059       .  S
Fe201       O206   2.097       .  S
Fe201       O213   2.082       .  S
Fe201       O202   2.052       .  S
Fe201       O210   1.961       .  S
O202        C209   1.267       .  A
O203        C217   1.266       .  A
O204        C209   1.275       .  A
O205        C208   1.270       .  A
O206        C218   1.277       .  A
O207        C220   1.272       .  A
C208        O213   1.274       .  A
C208        C665   1.480   1_554  S
C209       C1001   1.477       .  S
O211        C214   1.266       .  A
O212        C214   1.272       .  A
C214        C689   1.490       .  S
O215        C220   1.278   1_565  A
O216        C218   1.271       .  A
C217        O219   1.264       .  A
C217        C641   1.481       .  S
C218        C796   1.479       .  S
C220        C628   1.485   1_545  S
Fe221       O237   2.072       .  S
Fe221       O227   2.098       .  S
Fe221       O234   2.105       .  S
Fe221       O226   2.040   1_556  S
Fe221       O232   1.955       .  S
Fe222       O225   2.043       .  S
Fe222       O229   2.067       .  S
Fe222       O233   2.044       .  S
Fe222       O238   2.068       .  S
Fe222       O232   1.945       .  S
Fe223       O241   2.120       .  S
Fe223       O228   2.065   1_556  S
Fe223       O235   2.042       .  S
Fe223       O224   2.107   1_556  S
Fe223       O232   1.949       .  S
O224        C231   1.279       .  A
O225        C239   1.273       .  A
O226        C231   1.267       .  A
O227        C230   1.275       .  A
O228        C240   1.263   1_554  A
O229        C242   1.266       .  A
C230        O235   1.266       .  A
C230        C844   1.476       .  S
C231        C569   1.490       .  S
O233        C236   1.272       .  A
O234        C236   1.281       .  A
C236        C521   1.479       .  S
O237        C242   1.267       .  A
O238        C240   1.264       .  A
C239        O241   1.285       .  A
C239        C545   1.486       .  S
C240        C617   1.480   1_556  S
C242        C604   1.485       .  S
Fe243       O259   2.068       .  S
Fe243       O249   2.103       .  S
Fe243       O256   2.111       .  S
Fe243       O248   2.039       .  S
Fe243       O254   1.958       .  S
Fe244       O247   2.042       .  S
Fe244       O251   2.067       .  S
Fe244       O255   2.045       .  S
Fe244       O260   2.073       .  S
Fe244       O254   1.947       .  S
Fe245       O263   2.121       .  S
Fe245       O250   2.054       .  S
Fe245       O257   2.043       .  S
Fe245       O246   2.110       .  S
Fe245       O254   1.953       .  S
O246        C253   1.279       .  A
O247        C261   1.271       .  A
O248        C253   1.268       .  A
O249        C252   1.276       .  A
O250        C262   1.263       .  A
O251        C264   1.267       .  A
C252        O257   1.267       .  A
C252        C868   1.487       .  S
C253        C700   1.483       .  S
O255        C258   1.272       .  A
O256        C258   1.281       .  A
C258        C820   1.485       .  S
O259        C264   1.267       .  A
O260        C262   1.267       .  A
C261        O263   1.283       .  A
C261        C556   1.483       .  S
C262        C497   1.483       .  S
C264        C676   1.485       .  S
Fe265       O281   2.110       .  S
Fe265       O271   2.048       .  S
Fe265       O278   2.081       .  S
Fe265       O270   2.101       .  S
Fe265       O276   1.969       .  S
Fe266       O269   2.070       .  S
Fe266       O273   2.035       .  S
Fe266       O277   2.062       .  S
Fe266       O282   2.043       .  S
Fe266       O276   1.952       .  S
Fe267       O285   2.062       .  S
Fe267       O272   2.110       .  S
Fe267       O279   2.098       .  S
Fe267       O268   2.047       .  S
Fe267       O276   1.958       .  S
O268        C275   1.266       .  A
O269        C283   1.265       .  A
O270        C275   1.275       .  A
O271        C274   1.270       .  A
O272        C284   1.282       .  A
O273        C286   1.269   1_655  A
C274        O279   1.278       .  A
C274        C593   1.485       .  S
C275       C1241   1.484       .  S
O277        C280   1.266       .  A
O278        C280   1.269       .  A
C280        C580   1.483       .  S
O281        C286   1.280   1_655  A
O282        C284   1.272       .  A
C283        O285   1.264       .  A
C283        C473   1.488       .  S
C284        C449   1.484       .  S
C286        C508   1.482       .  S
Fe287       O303   2.107       .  S
Fe287       O293   2.043       .  S
Fe287       O300   2.072       .  S
Fe287       O292   2.097       .  S
Fe287       O298   1.962       .  S
Fe288       O291   2.070       .  S
Fe288       O295   2.037       .  S
Fe288       O299   2.062       .  S
Fe288       O304   2.042       .  S
Fe288       O298   1.945       .  S
Fe289       O307   2.056       .  S
Fe289       O294   2.108       .  S
Fe289       O301   2.095       .  S
Fe289       O290   2.047       .  S
Fe289       O298   1.952       .  S
O290        C297   1.267       .  A
O291        C305   1.266       .  A
O292        C297   1.274       .  A
O293        C296   1.269   1_554  A
O294        C306   1.280       .  A
O295        C308   1.269       .  A
C296        O301   1.276   1_556  A
C296        C401   1.480       .  S
C297       C1372   1.477       .  S
O299        C302   1.267       .  A
O300        C302   1.268       .  A
C302        C425   1.482       .  S
O303        C308   1.279       .  A
O304        C306   1.270       .  A
C305        O307   1.264       .  A
C305        C532   1.482       .  S
C306        C460   1.481       .  S
C308        C388   1.481       .  S
Fe309       O325   2.073       .  S
Fe309       O315   2.090       .  S
Fe309       O322   2.091       .  S
Fe309       O314   2.037   1_556  S
Fe309       O320   1.958       .  S
Fe310       O313   2.046       .  S
Fe310       O317   2.060       .  S
Fe310       O321   2.053       .  S
Fe310       O326   2.071       .  S
Fe310       O320   1.954       .  S
Fe311       O329   2.108   1_554  S
Fe311       O316   2.055       .  S
Fe311       O323   2.054   1_554  S
Fe311       O312   2.102       .  S
Fe311       O320   1.958   1_554  S
O312        C319   1.278       .  A
O313        C327   1.271       .  A
O314        C319   1.268       .  A
O315        C318   1.273       .  A
O316        C328   1.264       .  A
O317        C330   1.267       .  A
C318        O323   1.267       .  A
C318       C1073   1.481       .  S
C319        C761   1.484       .  S
O321        C324   1.271       .  A
O322        C324   1.276       .  A
C324        C652   1.476   1_655  S
O325        C330   1.270       .  A
O326        C328   1.268   1_556  A
C327        O329   1.280       .  A
C327        C353   1.482       .  S
C328        C377   1.482       .  S
C330        C737   1.484       .  S
Fe331       O347   2.068       .  S
Fe331       O337   2.099       .  S
Fe331       O344   2.099   1_545  S
Fe331       O336   2.049       .  S
Fe331       O342   1.965       .  S
Fe332       O335   2.052       .  S
Fe332       O339   2.066       .  S
Fe332       O343   2.057       .  S
Fe332       O348   2.076       .  S
Fe332       O342   1.954       .  S
Fe333       O351   2.101       .  S
Fe333       O338   2.051       .  S
Fe333       O345   2.042       .  S
Fe333       O334   2.092       .  S
Fe333       O342   1.955       .  S
O334        C341   1.277       .  A
O335        C349   1.272       .  A
O336        C341   1.270       .  A
O337        C340   1.273       .  A
O338        C350   1.263       .  A
O339        C352   1.269       .  A
C340        O345   1.265       .  A
C340       C1132   1.482       .  S
C341        C436   1.482       .  S
O343        C346   1.272   1_545  A
O344        C346   1.278       .  A
C346        C484   1.487       .  S
O347        C352   1.269       .  A
O348        C350   1.268       .  A
C349        O351   1.279       .  A
C349        C364   1.485       .  S
C350        C713   1.484       .  S
C352        C412   1.484       .  S
C353        C354   1.404       .  A
C353        C358   1.406       .  A
C354        C355   1.403       .  A
C354        H367   1.083       .  S
C355        C356   1.407       .  A
C355        H368   1.083       .  S
C356        C357   1.407       .  A
C356        C359   1.490       .  S
C357        C358   1.396       .  A
C357        H369   1.081       .  S
C358        H370   1.083       .  S
C359        C360   1.350       .  D
C359        H371   1.085       .  S
C360        C361   1.490       .  S
C360        H372   1.085       .  S
C361        C362   1.406       .  A
C361        C366   1.407       .  A
C362        C363   1.402       .  A
C362        H373   1.083       .  S
C363        C364   1.406       .  A
C363        H374   1.083       .  S
C364        C365   1.406       .  A
C365        C366   1.396       .  A
C365        H375   1.083       .  S
C366        H376   1.081       .  S
C377        C378   1.407       .  A
C377        C382   1.405   1_554  A
C378        C379   1.399       .  A
C378        H391   1.083       .  S
C379        C380   1.403       .  A
C379        H392   1.083       .  S
C380        C381   1.407       .  A
C380        C383   1.485       .  S
C381        C382   1.395   1_554  A
C381        H393   1.082   1_554  S
C382        H394   1.083       .  S
C383        C384   1.344       .  D
C383        H395   1.086       .  S
C384        C385   1.481       .  S
C384        H396   1.086       .  S
C385        C386   1.400       .  A
C385        C390   1.408       .  A
C386        C387   1.393   1_545  A
C386        H397   1.084       .  S
C387        C388   1.406       .  A
C387        H398   1.083       .  S
C388        C389   1.406   1_565  A
C389        C390   1.402       .  A
C389        H399   1.083       .  S
C390        H400   1.082       .  S
C401        C402   1.405       .  A
C401        C406   1.406       .  A
C402        C403   1.403       .  A
C402        H415   1.083       .  S
C403        C404   1.406       .  A
C403        H416   1.083       .  S
C404        C405   1.405       .  A
C404        C407   1.485       .  S
C405        C406   1.393       .  A
C405        H417   1.082       .  S
C406        H418   1.083       .  S
C407        C408   1.349       .  D
C407        H419   1.086       .  S
C408        C409   1.484       .  S
C408        H420   1.086       .  S
C409        C410   1.405       .  A
C409        C414   1.404       .  A
C410        C411   1.402       .  A
C410        H421   1.083       .  S
C411        C412   1.406   1_565  A
C411        H422   1.083   1_565  S
C412        C413   1.408   1_545  A
C413        C414   1.394       .  A
C413        H423   1.083   1_565  S
C414        H424   1.082       .  S
C425        C426   1.406       .  A
C425        C430   1.406       .  A
C426        C427   1.404       .  A
C426        H439   1.083       .  S
C427        C428   1.407       .  A
C427        H440   1.083       .  S
C428        C429   1.404       .  A
C428        C431   1.487   1_565  S
C429        C430   1.392       .  A
C429        H441   1.082       .  S
C430        H442   1.083       .  S
C431        C432   1.350       .  D
C431        H443   1.085   1_545  S
C432        C433   1.487       .  S
C432        H444   1.086       .  S
C433        C434   1.406       .  A
C433        C438   1.406       .  A
C434        C435   1.396       .  A
C434        H445   1.081   1_545  S
C435        C436   1.407       .  A
C435        H446   1.083       .  S
C436        C437   1.404       .  A
C437        C438   1.401       .  A
C437        H447   1.083       .  S
C438        H448   1.083       .  S
C449        C450   1.407       .  A
C449        C454   1.405       .  A
C450        C451   1.395       .  A
C450        H463   1.083       .  S
C451        C452   1.401       .  A
C451        H464   1.084       .  S
C452        C453   1.410       .  A
C452        C455   1.488       .  S
C453        C454   1.403       .  A
C453        H465   1.082       .  S
C454        H466   1.083       .  S
C455        C456   1.347       .  D
C455        H467   1.086       .  S
C456        C457   1.487       .  S
C456        H468   1.085       .  S
C457        C458   1.401       .  A
C457        C462   1.409       .  A
C458        C459   1.394       .  A
C458        H469   1.084       .  S
C459        C460   1.406       .  A
C459        H470   1.083       .  S
C460        C461   1.406       .  A
C461        C462   1.403       .  A
C461        H471   1.083       .  S
C462        H472   1.082       .  S
C473        C474   1.407       .  A
C473        C478   1.407       .  A
C474        C475   1.399       .  A
C474        H487   1.083       .  S
C475        C476   1.403       .  A
C475        H488   1.083       .  S
C476        C477   1.408       .  A
C476        C479   1.491       .  S
C477        C478   1.402       .  A
C477        H489   1.082       .  S
C478        H490   1.083       .  S
C479        C480   1.349       .  D
C479        H491   1.085       .  S
C480        C481   1.492       .  S
C480        H492   1.085       .  S
C481        C482   1.405       .  A
C481        C486   1.408       .  A
C482        C483   1.400       .  A
C482        H493   1.083       .  S
C483        C484   1.406       .  A
C483        H494   1.083       .  S
C484        C485   1.407       .  A
C485        C486   1.401       .  A
C485        H495   1.083       .  S
C486        H496   1.081       .  S
C497        C498   1.407       .  A
C497        C502   1.406       .  A
C498        C499   1.399       .  A
C498        H511   1.083       .  S
C499        C500   1.403       .  A
C499        H512   1.083       .  S
C500        C501   1.407       .  A
C500        C503   1.487       .  S
C501        C502   1.396       .  A
C501        H513   1.082       .  S
C502        H514   1.083       .  S
C503        C504   1.345       .  D
C503        H515   1.086       .  S
C504        C505   1.482       .  S
C504        H516   1.085       .  S
C505        C506   1.400       .  A
C505        C510   1.409       .  A
C506        C507   1.392       .  A
C506        H517   1.084       .  S
C507        C508   1.407       .  A
C507        H518   1.083       .  S
C508        C509   1.406       .  A
C509        C510   1.403       .  A
C509        H519   1.083       .  S
C510        H520   1.082       .  S
C521        C522   1.406   1_556  A
C521        C526   1.405   1_456  A
C522        C523   1.396   1_455  A
C522        H535   1.083       .  S
C523        C524   1.401       .  A
C523        H536   1.083       .  S
C524        C525   1.408       .  A
C524        C527   1.483       .  S
C525        C526   1.399       .  A
C525        H537   1.082       .  S
C526        H538   1.083   1_554  S
C527        C528   1.346       .  D
C527        H539   1.084       .  S
C528        C529   1.487       .  S
C528        H540   1.086   1_554  S
C529        C530   1.404       .  A
C529        C534   1.408       .  A
C530        C531   1.397       .  A
C530        H541   1.083   1_554  S
C531        C532   1.405       .  A
C531        H542   1.083   1_554  S
C532        C533   1.406       .  A
C533        C534   1.397       .  A
C533        H543   1.083       .  S
C534        H544   1.081       .  S
C545        C546   1.407       .  A
C545        C550   1.406       .  A
C546        C547   1.396       .  A
C546        H559   1.083       .  S
C547        C548   1.402       .  A
C547        H560   1.084       .  S
C548        C549   1.411       .  A
C548        C551   1.492       .  S
C549        C550   1.405       .  A
C549        H561   1.081       .  S
C550        H562   1.083       .  S
C551        C552   1.348       .  D
C551        H563   1.085       .  S
C552        C553   1.491       .  S
C552        H564   1.085       .  S
C553        C554   1.402       .  A
C553        C558   1.411       .  A
C554        C555   1.395       .  A
C554        H565   1.084       .  S
C555        C556   1.406       .  A
C555        H566   1.083       .  S
C556        C557   1.406       .  A
C557        C558   1.406       .  A
C557        H567   1.083       .  S
C558        H568   1.082       .  S
C569        C570   1.406       .  A
C569        C574   1.410       .  A
C570        C571   1.406       .  A
C570        H583   1.083       .  S
C571        C572   1.408       .  A
C571        H584   1.083       .  S
C572        C573   1.403       .  A
C572        C575   1.489       .  S
C573        C574   1.394       .  A
C573        H585   1.082       .  S
C574        H586   1.083       .  S
C575        C576   1.352       .  D
C575        H587   1.086       .  S
C576        C577   1.490       .  S
C576        H588   1.086       .  S
C577        C578   1.408       .  A
C577        C582   1.404       .  A
C578        C579   1.406   1_455  A
C578        H589   1.083       .  S
C579        C580   1.404       .  A
C579        H590   1.083       .  S
C580        C581   1.406   1_655  A
C581        C582   1.394       .  A
C581        H591   1.083       .  S
C582        H592   1.082       .  S
C593        C594   1.404       .  A
C593        C598   1.408       .  A
C594        C595   1.403       .  A
C594        H607   1.083       .  S
C595        C596   1.407       .  A
C595        H608   1.083       .  S
C596        C597   1.406       .  A
C596        C599   1.491       .  S
C597        C598   1.396       .  A
C597        H609   1.081       .  S
C598        H610   1.083       .  S
C599        C600   1.352       .  D
C599        H611   1.085       .  S
C600        C601   1.490   1_655  S
C600        H612   1.085       .  S
C601        C602   1.407       .  A
C601        C606   1.406       .  A
C602        C603   1.404       .  A
C602        H613   1.083       .  S
C603        C604   1.405       .  A
C603        H614   1.083       .  S
C604        C605   1.407       .  A
C605        C606   1.395       .  A
C605        H615   1.083       .  S
C606        H616   1.081       .  S
C617        C618   1.406   1_554  A
C617        C622   1.406       .  A
C618        C619   1.395       .  A
C618        H631   1.083       .  S
C619        C620   1.400   1_556  A
C619        H632   1.084       .  S
C620        C621   1.407       .  A
C620        C623   1.480       .  S
C621        C622   1.403       .  A
C621        H633   1.083       .  S
C622        H634   1.083       .  S
C623        C624   1.343       .  D
C623        H635   1.087       .  S
C624        C625   1.483       .  S
C624        H636   1.087       .  S
C625        C626   1.401       .  A
C625        C630   1.406       .  A
C626        C627   1.398       .  A
C626        H637   1.083       .  S
C627        C628   1.408       .  A
C627        H638   1.083       .  S
C628        C629   1.407       .  A
C629        C630   1.399       .  A
C629        H639   1.083       .  S
C630        H640   1.083       .  S
C641        C642   1.407       .  A
C641        C646   1.405       .  A
C642        C643   1.402   1_554  A
C642        H655   1.083   1_554  S
C643        C644   1.404   1_556  A
C643        H656   1.083       .  S
C644        C645   1.405       .  A
C644        C647   1.484   1_554  S
C645        C646   1.394       .  A
C645        H657   1.083       .  S
C646        H658   1.083       .  S
C647        C648   1.347   1_556  D
C647        H659   1.086       .  S
C648        C649   1.482       .  S
C648        H660   1.087       .  S
C649        C650   1.403       .  A
C649        C654   1.407   1_554  A
C650        C651   1.397       .  A
C650        H661   1.083       .  S
C651        C652   1.403   1_554  A
C651        H662   1.083       .  S
C652        C653   1.405       .  A
C653        C654   1.400       .  A
C653        H663   1.083       .  S
C654        H664   1.082       .  S
C665        C666   1.404       .  A
C665        C670   1.406       .  A
C666        C667   1.400       .  A
C666        H679   1.083       .  S
C667        C668   1.404       .  A
C667        H680   1.083       .  S
C668        C669   1.406       .  A
C668        C671   1.485       .  S
C669        C670   1.398       .  A
C669        H681   1.082   1_545  S
C670        H682   1.083       .  S
C671        C672   1.348   1_545  D
C671        H683   1.087       .  S
C672        C673   1.486       .  S
C672        H684   1.086       .  S
C673        C674   1.405       .  A
C673        C678   1.404       .  A
C674        C675   1.403       .  A
C674        H685   1.083       .  S
C675        C676   1.407       .  A
C675        H686   1.083       .  S
C676        C677   1.407       .  A
C677        C678   1.394       .  A
C677        H687   1.083       .  S
C678        H688   1.082       .  S
C689        C690   1.409       .  A
C689        C694   1.408   1_545  A
C690        C691   1.392   1_545  A
C690        H703   1.083       .  S
C691        C692   1.399       .  A
C691        H704   1.084       .  S
C692        C693   1.411       .  A
C692        C695   1.488       .  S
C693        C694   1.409       .  A
C693        H705   1.082       .  S
C694        H706   1.083       .  S
C695        C696   1.344       .  D
C695        H707   1.087       .  S
C696        C697   1.487       .  S
C696        H708   1.086       .  S
C697        C698   1.399       .  A
C697        C702   1.411       .  A
C698        C699   1.395       .  A
C698        H709   1.084       .  S
C699        C700   1.408       .  A
C699        H710   1.083       .  S
C700        C701   1.404       .  A
C701        C702   1.407       .  A
C701        H711   1.083       .  S
C702        H712   1.083       .  S
C713        C714   1.407       .  A
C713        C718   1.406       .  A
C714        C715   1.398       .  A
C714        H727   1.083       .  S
C715        C716   1.402       .  A
C715        H728   1.083       .  S
C716        C717   1.407       .  A
C716        C719   1.484       .  S
C717        C718   1.398       .  A
C717        H729   1.082       .  S
C718        H730   1.083       .  S
C719        C720   1.344       .  D
C719        H731   1.086       .  S
C720        C721   1.481       .  S
C720        H732   1.086       .  S
C721        C722   1.400       .  A
C721        C726   1.407       .  A
C722        C723   1.394   1_655  A
C722        H733   1.084       .  S
C723        C724   1.407       .  A
C723        H734   1.083       .  S
C724        C725   1.407   1_455  A
C725        C726   1.401       .  A
C725        H735   1.083       .  S
C726        H736   1.082       .  S
C737        C738   1.406       .  A
C737        C742   1.408       .  A
C738        C739   1.404   1_655  A
C738        H751   1.083       .  S
C739        C740   1.405       .  A
C739        H752   1.083       .  S
C740        C741   1.403       .  A
C740        C743   1.483       .  S
C741        C742   1.392   1_455  A
C741        H753   1.083       .  S
C742        H754   1.083       .  S
C743        C744   1.349       .  D
C743        H755   1.086       .  S
C744        C745   1.484       .  S
C744        H756   1.087       .  S
C745        C746   1.406       .  A
C745        C750   1.404       .  A
C746        C747   1.401       .  A
C746        H757   1.083       .  S
C747        C748   1.404       .  A
C747        H758   1.083       .  S
C748        C749   1.408       .  A
C749        C750   1.395       .  A
C749        H759   1.083       .  S
C750        H760   1.082       .  S
C761        C762   1.406       .  A
C761        C766   1.408       .  A
C762        C763   1.405       .  A
C762        H775   1.083       .  S
C763        C764   1.406       .  A
C763        H776   1.083       .  S
C764        C765   1.403       .  A
C764        C767   1.486       .  S
C765        C766   1.392       .  A
C765        H777   1.083   1_655  S
C766        H778   1.083       .  S
C767        C768   1.348   1_655  D
C767        H779   1.086       .  S
C768        C769   1.479       .  S
C768        H780   1.086       .  S
C769        C770   1.401       .  A
C769        C774   1.407       .  A
C770        C771   1.394       .  A
C770        H781   1.084       .  S
C771        C772   1.405       .  A
C771        H782   1.083       .  S
C772        C773   1.406       .  A
C773        C774   1.403       .  A
C773        H783   1.083       .  S
C774        H784   1.083       .  S
C785        C786   1.404       .  A
C785        C790   1.405       .  A
C786        C787   1.403       .  A
C786        H799   1.083       .  S
C787        C788   1.407       .  A
C787        H800   1.083       .  S
C788        C789   1.407       .  A
C788        C791   1.489       .  S
C789        C790   1.393       .  A
C789        H801   1.081       .  S
C790        H802   1.084       .  S
C791        C792   1.350       .  D
C791        H803   1.085       .  S
C792        C793   1.489       .  S
C792        H804   1.085       .  S
C793        C794   1.406       .  A
C793        C798   1.408       .  A
C794        C795   1.401       .  A
C794        H805   1.083       .  S
C795        C796   1.404       .  A
C795        H806   1.083       .  S
C796        C797   1.404       .  A
C797        C798   1.396       .  A
C797        H807   1.083       .  S
C798        H808   1.081       .  S
C809        C810   1.407       .  A
C809        C814   1.407       .  A
C810        C811   1.401       .  A
C810        H823   1.083       .  S
C811        C812   1.404       .  A
C811        H824   1.083       .  S
C812        C813   1.407       .  A
C812        C815   1.489       .  S
C813        C814   1.398       .  A
C813        H825   1.082       .  S
C814        H826   1.083       .  S
C815        C816   1.347       .  D
C815        H827   1.086       .  S
C816        C817   1.486       .  S
C816        H828   1.086       .  S
C817        C818   1.401       .  A
C817        C822   1.408       .  A
C818        C819   1.396   1_545  A
C818        H829   1.083       .  S
C819        C820   1.407       .  A
C819        H830   1.083       .  S
C820        C821   1.407   1_565  A
C821        C822   1.402       .  A
C821        H831   1.083       .  S
C822        H832   1.082       .  S
C833        C834   1.407       .  A
C833        C838   1.407       .  A
C834        C835   1.406       .  A
C834        H847   1.083       .  S
C835        C836   1.405       .  A
C835        H848   1.083       .  S
C836        C837   1.404       .  A
C836        C839   1.487       .  S
C837        C838   1.394       .  A
C837        H849   1.083       .  S
C838        H850   1.083       .  S
C839        C840   1.348       .  D
C839        H851   1.085       .  S
C840        C841   1.489   1_554  S
C840        H852   1.088       .  S
C841        C842   1.404       .  A
C841        C846   1.410   1_556  A
C842        C843   1.394       .  A
C842        H853   1.084       .  S
C843        C844   1.403       .  A
C843        H854   1.084       .  S
C844        C845   1.405   1_556  A
C845        C846   1.406       .  A
C845        H855   1.083       .  S
C846        H856   1.081       .  S
C857        C858   1.403       .  A
C857        C862   1.406       .  A
C858        C859   1.395       .  A
C858        H871   1.084       .  S
C859        C860   1.404       .  A
C859        H872   1.084       .  S
C860        C861   1.410       .  A
C860        C863   1.490       .  S
C861        C862   1.406       .  A
C861        H873   1.081       .  S
C862        H874   1.083       .  S
C863        C864   1.349       .  D
C863        H875   1.088       .  S
C864        C865   1.488       .  S
C864        H876   1.085       .  S
C865        C866   1.405       .  A
C865        C870   1.404       .  A
C866        C867   1.407       .  A
C866        H877   1.083       .  S
C867        C868   1.408       .  A
C867        H878   1.083       .  S
C868        C869   1.407       .  A
C869        C870   1.394       .  A
C869        H879   1.083       .  S
C870        H880   1.083       .  S
C881        C882   1.403       .  A
C881        C886   1.404       .  A
C882        C883   1.402       .  A
C882        H895   1.083       .  S
C883        C884   1.408       .  A
C883        H896   1.083       .  S
C884        C885   1.408       .  A
C884        C887   1.490       .  S
C885        C886   1.394       .  A
C885        H897   1.080       .  S
C886        H898   1.084       .  S
C887        C888   1.350       .  D
C887        H899   1.085       .  S
C888        C889   1.488       .  S
C888        H900   1.084       .  S
C889        C890   1.406       .  A
C889        C894   1.407       .  A
C890        C891   1.402       .  A
C890        H901   1.083       .  S
C891        C892   1.404       .  A
C891        H902   1.083       .  S
C892        C893   1.404       .  A
C893        C894   1.394       .  A
C893        H903   1.083       .  S
C894        H904   1.081       .  S
C905        C906   1.408       .  A
C905        C910   1.406       .  A
C906        C907   1.407       .  A
C906        H919   1.083       .  S
C907        C908   1.405       .  A
C907        H920   1.083       .  S
C908        C909   1.404       .  A
C908        C911   1.487       .  S
C909        C910   1.392       .  A
C909        H921   1.083       .  S
C910        H922   1.083       .  S
C911        C912   1.349       .  D
C911        H923   1.084       .  S
C912        C913   1.489       .  S
C912        H924   1.088       .  S
C913        C914   1.405       .  A
C913        C918   1.410       .  A
C914        C915   1.395       .  A
C914        H925   1.084       .  S
C915        C916   1.400       .  A
C915        H926   1.084       .  S
C916        C917   1.405       .  A
C917        C918   1.405       .  A
C917        H927   1.083       .  S
C918        H928   1.081       .  S
C929        C930   1.406       .  A
C929        C934   1.407       .  A
C930        C931   1.400       .  A
C930        H943   1.083       .  S
C931        C932   1.405       .  A
C931        H944   1.083       .  S
C932        C933   1.407       .  A
C932        C935   1.490       .  S
C933        C934   1.398       .  A
C933        H945   1.081       .  S
C934        H946   1.083       .  S
C935        C936   1.348       .  D
C935        H947   1.086       .  S
C936        C937   1.486       .  S
C936        H948   1.085       .  S
C937        C938   1.403       .  A
C937        C942   1.408       .  A
C938        C939   1.397       .  A
C938        H949   1.083       .  S
C939        C940   1.405       .  A
C939        H950   1.083       .  S
C940        C941   1.407       .  A
C941        C942   1.401       .  A
C941        H951   1.083       .  S
C942        H952   1.082       .  S
C953        C954   1.407       .  A
C953        C958   1.404       .  A
C954        C955   1.395       .  A
C954        H967   1.083       .  S
C955        C956   1.399       .  A
C955        H968   1.083       .  S
C956        C957   1.409       .  A
C956        C959   1.483       .  S
C957        C958   1.402       .  A
C957        H969   1.083       .  S
C958        H970   1.083       .  S
C959        C960   1.343       .  D
C959        H971   1.086       .  S
C960        C961   1.483       .  S
C960        H972   1.087       .  S
C961        C962   1.399       .  A
C961        C966   1.410       .  A
C962        C963   1.391       .  A
C962        H973   1.084       .  S
C963        C964   1.407       .  A
C963        H974   1.083       .  S
C964        C965   1.405       .  A
C965        C966   1.405       .  A
C965        H975   1.083       .  S
C966        H976   1.082       .  S
C977        C978   1.406       .  A
C977        C982   1.407       .  A
C978        C979   1.405       .  A
C978        H991   1.083       .  S
C979        C980   1.407       .  A
C979        H992   1.083       .  S
C980        C981   1.404       .  A
C980        C983   1.488       .  S
C981        C982   1.391       .  A
C981        H993   1.082       .  S
C982        H994   1.083       .  S
C983        C984   1.349       .  D
C983        H995   1.086       .  S
C984        C985   1.481       .  S
C984        H996   1.085       .  S
C985        C986   1.402       .  A
C985        C990   1.408       .  A
C986        C987   1.393       .  A
C986        H997   1.084       .  S
C987        C988   1.403       .  A
C987        H998   1.084       .  S
C988        C989   1.404       .  A
C989        C990   1.402       .  A
C989        H999   1.083       .  S
C990       H1000   1.082       .  S
C1001      C1002   1.404       .  A
C1001      C1006   1.405       .  A
C1002      C1003   1.400       .  A
C1002      H1015   1.083       .  S
C1003      C1004   1.403       .  A
C1003      H1016   1.083       .  S
C1004      C1005   1.406       .  A
C1004      C1007   1.486       .  S
C1005      C1006   1.403       .  A
C1005      H1017   1.083       .  S
C1006      H1018   1.083       .  S
C1007      C1008   1.348       .  D
C1007      H1019   1.087       .  S
C1008      C1009   1.487   1_554  S
C1008      H1020   1.087   1_554  S
C1009      C1010   1.403       .  A
C1009      C1014   1.407   1_556  A
C1010      C1011   1.399       .  A
C1010      H1021   1.083       .  S
C1011      C1012   1.405       .  A
C1011      H1022   1.083       .  S
C1012      C1013   1.405   1_556  A
C1013      C1014   1.404       .  A
C1013      H1023   1.083       .  S
C1014      H1024   1.083       .  S
C1025      C1026   1.404       .  A
C1025      C1030   1.405       .  A
C1026      C1027   1.402       .  A
C1026      H1039   1.083       .  S
C1027      C1028   1.407       .  A
C1027      H1040   1.083       .  S
C1028      C1029   1.408       .  A
C1028      C1031   1.490       .  S
C1029      C1030   1.396       .  A
C1029      H1041   1.081       .  S
C1030      H1042   1.084       .  S
C1031      C1032   1.350       .  D
C1031      H1043   1.085       .  S
C1032      C1033   1.490       .  S
C1032      H1044   1.085       .  S
C1033      C1034   1.407       .  A
C1033      C1038   1.407       .  A
C1034      C1035   1.403       .  A
C1034      H1045   1.083       .  S
C1035      C1036   1.405       .  A
C1035      H1046   1.083       .  S
C1036      C1037   1.407       .  A
C1037      C1038   1.396       .  A
C1037      H1047   1.083       .  S
C1038      H1048   1.081       .  S
C1049      C1050   1.406       .  A
C1049      C1054   1.405       .  A
C1050      C1051   1.396       .  A
C1050      H1063   1.083       .  S
C1051      C1052   1.402       .  A
C1051      H1064   1.083       .  S
C1052      C1053   1.409       .  A
C1052      C1055   1.488       .  S
C1053      C1054   1.401       .  A
C1053      H1065   1.081       .  S
C1054      H1066   1.083       .  S
C1055      C1056   1.348       .  D
C1055      H1067   1.083       .  S
C1056      C1057   1.492       .  S
C1056      H1068   1.085       .  S
C1057      C1058   1.404       .  A
C1057      C1062   1.410   1_554  A
C1058      C1059   1.398       .  A
C1058      H1069   1.083       .  S
C1059      C1060   1.406       .  A
C1059      H1070   1.083       .  S
C1060      C1061   1.405   1_554  A
C1061      C1062   1.399       .  A
C1061      H1071   1.083       .  S
C1062      H1072   1.080       .  S
C1073      C1074   1.406   1_556  A
C1073      C1078   1.406       .  A
C1074      C1075   1.402       .  A
C1074      H1087   1.083       .  S
C1075      C1076   1.403       .  A
C1075      H1088   1.083       .  S
C1076      C1077   1.406   1_554  A
C1076      C1079   1.486       .  S
C1077      C1078   1.401       .  A
C1077      H1089   1.083       .  S
C1078      H1090   1.083       .  S
C1079      C1080   1.344       .  D
C1079      H1091   1.087       .  S
C1080      C1081   1.486       .  S
C1080      H1092   1.087   1_554  S
C1081      C1082   1.403       .  A
C1081      C1086   1.407       .  A
C1082      C1083   1.401       .  A
C1082      H1093   1.083       .  S
C1083      C1084   1.406       .  A
C1083      H1094   1.083       .  S
C1084      C1085   1.406       .  A
C1085      C1086   1.402       .  A
C1085      H1095   1.083       .  S
C1086      H1096   1.083       .  S
C1097      C1098   1.406       .  A
C1097      C1102   1.406       .  A
C1098      C1099   1.395       .  A
C1098      H1111   1.083       .  S
C1099      C1100   1.401       .  A
C1099      H1112   1.083       .  S
C1100      C1101   1.408       .  A
C1100      C1103   1.483       .  S
C1101      C1102   1.402       .  A
C1101      H1113   1.082   1_554  S
C1102      H1114   1.083   1_554  S
C1103      C1104   1.344   1_554  D
C1103      H1115   1.087       .  S
C1104      C1105   1.484       .  S
C1104      H1116   1.086       .  S
C1105      C1106   1.401       .  A
C1105      C1110   1.407   1_556  A
C1106      C1107   1.397       .  A
C1106      H1117   1.083       .  S
C1107      C1108   1.407       .  A
C1107      H1118   1.083       .  S
C1108      C1109   1.406   1_556  A
C1109      C1110   1.401       .  A
C1109      H1119   1.083       .  S
C1110      H1120   1.082       .  S
C1121      C1122   1.408       .  A
C1121      C1126   1.405       .  A
C1122      C1123   1.406       .  A
C1122      H1135   1.083       .  S
C1123      C1124   1.404       .  A
C1123      H1136   1.083       .  S
C1124      C1125   1.405       .  A
C1124      C1127   1.487       .  S
C1125      C1126   1.394       .  A
C1125      H1137   1.083       .  S
C1126      H1138   1.083       .  S
C1127      C1128   1.348       .  D
C1127      H1139   1.085       .  S
C1128      C1129   1.488       .  S
C1128      H1140   1.088       .  S
C1129      C1130   1.403       .  A
C1129      C1134   1.409       .  A
C1130      C1131   1.393       .  A
C1130      H1141   1.084       .  S
C1131      C1132   1.404       .  A
C1131      H1142   1.084       .  S
C1132      C1133   1.407       .  A
C1133      C1134   1.408       .  A
C1133      H1143   1.083       .  S
C1134      H1144   1.082       .  S
C1145      C1146   1.407       .  A
C1145      C1150   1.407       .  A
C1146      C1147   1.397       .  A
C1146      H1159   1.083       .  S
C1147      C1148   1.401       .  A
C1147      H1160   1.083       .  S
C1148      C1149   1.407       .  A
C1148      C1151   1.483       .  S
C1149      C1150   1.399       .  A
C1149      H1161   1.082       .  S
C1150      H1162   1.083       .  S
C1151      C1152   1.346       .  D
C1151      H1163   1.085       .  S
C1152      C1153   1.485       .  S
C1152      H1164   1.086       .  S
C1153      C1154   1.403       .  A
C1153      C1158   1.407       .  A
C1154      C1155   1.397       .  A
C1154      H1165   1.083       .  S
C1155      C1156   1.406       .  A
C1155      H1166   1.083       .  S
C1156      C1157   1.407       .  A
C1157      C1158   1.398       .  A
C1157      H1167   1.083       .  S
C1158      H1168   1.082       .  S
C1169      C1170   1.406       .  A
C1169      C1174   1.406       .  A
C1170      C1171   1.406       .  A
C1170      H1183   1.083       .  S
C1171      C1172   1.407       .  A
C1171      H1184   1.083       .  S
C1172      C1173   1.404       .  A
C1172      C1175   1.490       .  S
C1173      C1174   1.393       .  A
C1173      H1185   1.082       .  S
C1174      H1186   1.083       .  S
C1175      C1176   1.349       .  D
C1175      H1187   1.086       .  S
C1176      C1177   1.482       .  S
C1176      H1188   1.086       .  S
C1177      C1178   1.402       .  A
C1177      C1182   1.407       .  A
C1178      C1179   1.394       .  A
C1178      H1189   1.084       .  S
C1179      C1180   1.403       .  A
C1179      H1190   1.084       .  S
C1180      C1181   1.406       .  A
C1181      C1182   1.405       .  A
C1181      H1191   1.083       .  S
C1182      H1192   1.083       .  S
C1193      C1194   1.404       .  A
C1193      C1198   1.407       .  A
C1194      C1195   1.404       .  A
C1194      H1207   1.083       .  S
C1195      C1196   1.407       .  A
C1195      H1208   1.083       .  S
C1196      C1197   1.405       .  A
C1196      C1199   1.488       .  S
C1197      C1198   1.395       .  A
C1197      H1209   1.082       .  S
C1198      H1210   1.083       .  S
C1199      C1200   1.351       .  D
C1199      H1211   1.086       .  S
C1200      C1201   1.489       .  S
C1200      H1212   1.085       .  S
C1201      C1202   1.407       .  A
C1201      C1206   1.404       .  A
C1202      C1203   1.404       .  A
C1202      H1213   1.083       .  S
C1203      C1204   1.406       .  A
C1203      H1214   1.083       .  S
C1204      C1205   1.409       .  A
C1205      C1206   1.395       .  A
C1205      H1215   1.083       .  S
C1206      H1216   1.082       .  S
C1217      C1218   1.406       .  A
C1217      C1222   1.405       .  A
C1218      C1219   1.396       .  A
C1218      H1231   1.083       .  S
C1219      C1220   1.402       .  A
C1219      H1232   1.083       .  S
C1220      C1221   1.410       .  A
C1220      C1223   1.489       .  S
C1221      C1222   1.403       .  A
C1221      H1233   1.082       .  S
C1222      H1234   1.083       .  S
C1223      C1224   1.348       .  D
C1223      H1235   1.085       .  S
C1224      C1225   1.489       .  S
C1224      H1236   1.086       .  S
C1225      C1226   1.402       .  A
C1225      C1230   1.410       .  A
C1226      C1227   1.395       .  A
C1226      H1237   1.084       .  S
C1227      C1228   1.406       .  A
C1227      H1238   1.083       .  S
C1228      C1229   1.406       .  A
C1229      C1230   1.404       .  A
C1229      H1239   1.083       .  S
C1230      H1240   1.082       .  S
C1241      C1242   1.404       .  A
C1241      C1246   1.408       .  A
C1242      C1243   1.396       .  A
C1242      H1255   1.084       .  S
C1243      C1244   1.404       .  A
C1243      H1256   1.084       .  S
C1244      C1245   1.410       .  A
C1244      C1247   1.493       .  S
C1245      C1246   1.409       .  A
C1245      H1257   1.082       .  S
C1246      H1258   1.083       .  S
C1247      C1248   1.350       .  D
C1247      H1259   1.087       .  S
C1248      C1249   1.493       .  S
C1248      H1260   1.085       .  S
C1249      C1250   1.406       .  A
C1249      C1254   1.405       .  A
C1250      C1251   1.408       .  A
C1250      H1261   1.083       .  S
C1251      C1252   1.408       .  A
C1251      H1262   1.083       .  S
C1252      C1253   1.408       .  A
C1253      C1254   1.396       .  A
C1253      H1263   1.083       .  S
C1254      H1264   1.083       .  S
C1265      C1266   1.406       .  A
C1265      C1270   1.407       .  A
C1266      C1267   1.401       .  A
C1266      H1279   1.083       .  S
C1267      C1268   1.405       .  A
C1267      H1280   1.083       .  S
C1268      C1269   1.408       .  A
C1268      C1271   1.491       .  S
C1269      C1270   1.398       .  A
C1269      H1281   1.081       .  S
C1270      H1282   1.083       .  S
C1271      C1272   1.348       .  D
C1271      H1283   1.086       .  S
C1272      C1273   1.488       .  S
C1272      H1284   1.085       .  S
C1273      C1274   1.403       .  A
C1273      C1278   1.409       .  A
C1274      C1275   1.397       .  A
C1274      H1285   1.083       .  S
C1275      C1276   1.405       .  A
C1275      H1286   1.083       .  S
C1276      C1277   1.405       .  A
C1277      C1278   1.402       .  A
C1277      H1287   1.083       .  S
C1278      H1288   1.082       .  S
C1289      C1290   1.406       .  A
C1289      C1294   1.406       .  A
C1290      C1291   1.395       .  A
C1290      H1303   1.083       .  S
C1291      C1292   1.402       .  A
C1291      H1304   1.084       .  S
C1292      C1293   1.408       .  A
C1292      C1295   1.484       .  S
C1293      C1294   1.401       .  A
C1293      H1305   1.082       .  S
C1294      H1306   1.083       .  S
C1295      C1296   1.347       .  D
C1295      H1307   1.085       .  S
C1296      C1297   1.487       .  S
C1296      H1308   1.085       .  S
C1297      C1298   1.404       .  A
C1297      C1302   1.407       .  A
C1298      C1299   1.400       .  A
C1298      H1309   1.083       .  S
C1299      C1300   1.406       .  A
C1299      H1310   1.083       .  S
C1300      C1301   1.406       .  A
C1301      C1302   1.395       .  A
C1301      H1311   1.083       .  S
C1302      H1312   1.081       .  S
C1313      C1314   1.407       .  A
C1313      C1318   1.405       .  A
C1314      C1315   1.393       .  A
C1314      H1327   1.083       .  S
C1315      C1316   1.401       .  A
C1315      H1328   1.084       .  S
C1316      C1317   1.413       .  A
C1316      C1319   1.492       .  S
C1317      C1318   1.405       .  A
C1317      H1329   1.081       .  S
C1318      H1330   1.083       .  S
C1319      C1320   1.346       .  D
C1319      H1331   1.083       .  S
C1320      C1321   1.493       .  S
C1320      H1332   1.084       .  S
C1321      C1322   1.402       .  A
C1321      C1326   1.415       .  A
C1322      C1323   1.392       .  A
C1322      H1333   1.084       .  S
C1323      C1324   1.404       .  A
C1323      H1334   1.084       .  S
C1324      C1325   1.403       .  A
C1325      C1326   1.407       .  A
C1325      H1335   1.083       .  S
C1326      H1336   1.080       .  S
C1337      C1338   1.406       .  A
C1337      C1342   1.408       .  A
C1338      C1339   1.404       .  A
C1338      H1351   1.083       .  S
C1339      C1340   1.406       .  A
C1339      H1352   1.083       .  S
C1340      C1341   1.404       .  A
C1340      C1343   1.487       .  S
C1341      C1342   1.394       .  A
C1341      H1353   1.082       .  S
C1342      H1354   1.083       .  S
C1343      C1344   1.350       .  D
C1343      H1355   1.086       .  S
C1344      C1345   1.488       .  S
C1344      H1356   1.086       .  S
C1345      C1346   1.407       .  A
C1345      C1350   1.405       .  A
C1346      C1347   1.404       .  A
C1346      H1357   1.083       .  S
C1347      C1348   1.404       .  A
C1347      H1358   1.083       .  S
C1348      C1349   1.406       .  A
C1349      C1350   1.394       .  A
C1349      H1359   1.083       .  S
C1350      H1360   1.082       .  S
C1361      C1362   1.409       .  A
C1361      C1366   1.407       .  A
C1362      C1363   1.408       .  A
C1362      H1375   1.083       .  S
C1363      C1364   1.405   1_556  A
C1363      H1376   1.083       .  S
C1364      C1365   1.403       .  A
C1364      C1367   1.487       .  S
C1365      C1366   1.391   1_554  A
C1365      H1377   1.083       .  S
C1366      H1378   1.083       .  S
C1367      C1368   1.350       .  D
C1367      H1379   1.084   1_554  S
C1368      C1369   1.490       .  S
C1368      H1380   1.088       .  S
C1369      C1370   1.404       .  A
C1369      C1374   1.410       .  A
C1370      C1371   1.394       .  A
C1370      H1381   1.084       .  S
C1371      C1372   1.402       .  A
C1371      H1382   1.084       .  S
C1372      C1373   1.406       .  A
C1373      C1374   1.406       .  A
C1373      H1383   1.083       .  S
C1374      H1384   1.081       .  S
C1385      C1386   1.405       .  A
C1385      C1390   1.404       .  A
C1386      C1387   1.395       .  A
C1386      H1399   1.083       .  S
C1387      C1388   1.400       .  A
C1387      H1400   1.083       .  S
C1388      C1389   1.409       .  A
C1388      C1391   1.481       .  S
C1389      C1390   1.399       .  A
C1389      H1401   1.082   1_556  S
C1390      H1402   1.083   1_556  S
C1391      C1392   1.342   1_556  D
C1391      H1403   1.086       .  S
C1392      C1393   1.481       .  S
C1392      H1404   1.086       .  S
C1393      C1394   1.399       .  A
C1393      C1398   1.409   1_554  A
C1394      C1395   1.391       .  A
C1394      H1405   1.084       .  S
C1395      C1396   1.407       .  A
C1395      H1406   1.083       .  S
C1396      C1397   1.406       .  A
C1397      C1398   1.402   1_554  A
C1397      H1407   1.083   1_554  S
C1398      H1408   1.082       .  S
C1409      C1410   1.405       .  A
C1409      C1414   1.407       .  A
C1410      C1411   1.400       .  A
C1410      H1423   1.083       .  S
C1411      C1412   1.406       .  A
C1411      H1424   1.083       .  S
C1412      C1413   1.406       .  A
C1412      C1415   1.486       .  S
C1413      C1414   1.396       .  A
C1413      H1425   1.081       .  S
C1414      H1426   1.083       .  S
C1415      C1416   1.349       .  D
C1415      H1427   1.086       .  S
C1416      C1417   1.484       .  S
C1416      H1428   1.085       .  S
C1417      C1418   1.404       .  A
C1417      C1422   1.404       .  A
C1418      C1419   1.402       .  A
C1418      H1429   1.083       .  S
C1419      C1420   1.406       .  A
C1419      H1430   1.083       .  S
C1420      C1421   1.407       .  A
C1421      C1422   1.393       .  A
C1421      H1431   1.083       .  S
C1422      H1432   1.082       .  S
C1433      C1434   1.401       .  A
C1433      C1438   1.406       .  A
C1434      C1435   1.396       .  A
C1434      H1447   1.083       .  S
C1435      C1436   1.404       .  A
C1435      H1448   1.084       .  S
C1436      C1437   1.406       .  A
C1436      C1439   1.482       .  S
C1437      C1438   1.402       .  A
C1437      H1449   1.082       .  S
C1438      H1450   1.083       .  S
C1439      C1440   1.351       .  D
C1439      H1451   1.084       .  S
C1440      C1441   1.492       .  S
C1440      H1452   1.086       .  S
C1441      C1442   1.408       .  A
C1441      C1446   1.406       .  A
C1442      C1443   1.406       .  A
C1442      H1453   1.083       .  S
C1443      C1444   1.406       .  A
C1443      H1454   1.083       .  S
C1444      C1445   1.406       .  A
C1445      C1446   1.391       .  A
C1445      H1455   1.083       .  S
C1446      H1456   1.081       .  S
C1457      C1458   1.405       .  A
C1457      C1462   1.406       .  A
C1458      C1459   1.401       .  A
C1458      H1471   1.083       .  S
C1459      C1460   1.406       .  A
C1459      H1472   1.083       .  S
C1460      C1461   1.408       .  A
C1460      C1463   1.490       .  S
C1461      C1462   1.397       .  A
C1461      H1473   1.081       .  S
C1462      H1474   1.083       .  S
C1463      C1464   1.350       .  D
C1463      H1475   1.084       .  S
C1464      C1465   1.491       .  S
C1464      H1476   1.085       .  S
C1465      C1466   1.409       .  A
C1465      C1470   1.407       .  A
C1466      C1467   1.395       .  A
C1466      H1477   1.080       .  S
C1467      C1468   1.403       .  A
C1467      H1478   1.084       .  S
C1468      C1469   1.403       .  A
C1469      C1470   1.402       .  A
C1469      H1479   1.083       .  S
C1470      H1480   1.083       .  S
C1481      C1482   1.406       .  A
C1481      C1486   1.407   1_554  A
C1482      C1483   1.396       .  A
C1482      H1495   1.083       .  S
C1483      C1484   1.403       .  A
C1483      H1496   1.083       .  S
C1484      C1485   1.409   1_554  A
C1484      C1487   1.488       .  S
C1485      C1486   1.402       .  A
C1485      H1497   1.081       .  S
C1486      H1498   1.083       .  S
C1487      C1488   1.346       .  D
C1487      H1499   1.086       .  S
C1488      C1489   1.486       .  S
C1488      H1500   1.085       .  S
C1489      C1490   1.402       .  A
C1489      C1494   1.408       .  A
C1490      C1491   1.399       .  A
C1490      H1501   1.083       .  S
C1491      C1492   1.407       .  A
C1491      H1502   1.083       .  S
C1492      C1493   1.405       .  A
C1493      C1494   1.399       .  A
C1493      H1503   1.083       .  S
C1494      H1504   1.082       .  S
