geometry optimzed in LAMMPS
_audit_creation_date              2020-11-30 
_audit_creation_method            'lammps2cif' 
_symmetry_space_group_name_H-M    'P1' 
_symmetry_Int_Tables_number       1 
_symmetry_cell_setting            triclinic 
loop_ 
_symmetry_equiv_pos_as_xyz 
  x,y,z 
_cell_length_a                    37.971621322383484 
_cell_length_b                    37.97277815398779 
_cell_length_c                    24.77074282049355 
_cell_angle_alpha                 89.99302270252558 
_cell_angle_beta                  90.00361565327212 
_cell_angle_gamma                 90.02230239047174 
loop_ 
_atom_site_label 
_atom_site_type_symbol 
_atom_site_fract_x 
_atom_site_fract_y 
_atom_site_fract_z 
_atom_site_charge 
O1          O  0.70478880  0.60635885  0.46316955    -0.78890
O2          O  0.56850786  0.61540125  0.34593734    -0.63580
O3          O  0.63501413  0.62026010  0.45857615    -1.10180
C4          C  0.60478334  0.50491847  0.49530408     1.08000
O5          O  0.52957908  0.59198298  0.40422959    -0.76790
O6          O  0.55775661  0.59546867  0.50540579    -0.64370
Ni7        Ni  0.67615246  0.64730836  0.45557686     1.34870
C8          C  0.58295011  0.59664619  0.53897866     0.86740
O9          O  0.60810191  0.66920206  0.38500239    -0.77320
O10         O  0.64863145  0.68913801  0.44426743    -0.87600
C11         C  0.53733196  0.60602752  0.35873048     0.86310
O12         O  0.68430130  0.64440312  0.38021257    -0.65800
O13         O  0.57461046  0.52053288  0.49531363    -0.85090
C14         C  0.67178685  0.62458300  0.34393306     0.87140
C15         C  0.62496067  0.69408786  0.40838060     1.08710
H16         H  0.60346200  0.55550637  0.38835386     0.40510
O17         O  0.59828541  0.57057923  0.41878809    -1.07750
O18         O  0.60825875  0.57553849  0.53415669    -0.64400
Ni19       Ni  0.63525177  0.56990428  0.46919968     1.26350
O20         O  0.64154563  0.60929083  0.34811506    -0.64630
O21         O  0.63245166  0.52000179  0.47782995    -0.76920
C22         C  0.70119209  0.57772512  0.48926975     0.86520
O23         O  0.67387811  0.57060304  0.51503811    -0.64100
Ni24       Ni  0.55411758  0.55873618  0.45050225     1.27450
Ni25       Ni  0.60354585  0.61947898  0.40040091     1.26060
H26         H  0.62263933  0.63212920  0.48694478     0.41070
O27         O  0.77664661  0.60674294  0.47513621    -0.78890
O28         O  0.91303002  0.61583817  0.59191382    -0.63580
O29         O  0.84642879  0.62082747  0.47944978    -1.10180
C30         C  0.87666940  0.50556668  0.44219509     1.08000
O31         O  0.95192828  0.59253696  0.53349068    -0.76790
O32         O  0.92370545  0.59617233  0.43238395    -0.64370
Ni33       Ni  0.80523484  0.64777016  0.48275145     1.34870
C34         C  0.89848674  0.59741367  0.39886738     0.86740
O35         O  0.87334584  0.66965455  0.55320423    -0.77320
O36         O  0.83271810  0.68964852  0.49415543    -0.87600
C37         C  0.94420180  0.60654383  0.57901923     0.86310
O38         O  0.79721923  0.64470711  0.55813247    -0.65800
O39         O  0.90684418  0.52120370  0.44219928    -0.85090
C40         C  0.80976469  0.62474866  0.59419844     0.87140
C41         C  0.85643716  0.69456765  0.52999235     1.08710
H42         H  0.87807041  0.55596836  0.54931714     0.40510
O43         O  0.88322628  0.57110649  0.51894063    -1.07750
O44         O  0.87316129  0.57629915  0.40363426    -0.64400
Ni45       Ni  0.84622097  0.57049730  0.46860572     1.26350
O46         O  0.84001844  0.60953911  0.58984210    -0.64630
O47         O  0.84901245  0.52061099  0.45974111    -0.76920
C48         C  0.78031634  0.57816062  0.44894063     0.86520
O49         O  0.80756420  0.57128536  0.42287737    -0.64100
Ni50       Ni  0.92736804  0.55934739  0.48712928     1.27450
Ni51       Ni  0.87794666  0.61996452  0.53755012     1.26060
H52         H  0.85875602  0.63277061  0.45108548     0.41070
O53         O  0.85777218  0.52586974  0.21265535    -0.78890
O54         O  0.86694437  0.66237138  0.09619865    -0.63580
O55         O  0.87182942  0.59565526  0.20850045    -1.10180
C56         C  0.75652196  0.62576542  0.24559597     1.08000
O57         O  0.84346879  0.70120523  0.15455943    -0.76790
O58         O  0.84706820  0.67289105  0.25562737    -0.64370
Ni59       Ni  0.89878995  0.55447968  0.20516468     1.34870
C60         C  0.84830389  0.64764629  0.28910038     0.86740
O61         O  0.92072082  0.62269350  0.13495597    -0.77320
O62         O  0.94066907  0.58198028  0.19390077    -0.87600
C63         C  0.85760047  0.69352183  0.10910237     0.86310
O64         O  0.89579935  0.54653182  0.12976448    -0.65800
O65         O  0.77212720  0.65595595  0.24567247    -0.85090
C66         C  0.87594882  0.55915318  0.09362165     0.87140
C67         C  0.94561178  0.60573781  0.15813365     1.08710
H68         H  0.80703190  0.62731180  0.13852676     0.40510
O69         O  0.82212632  0.63245637  0.16895746    -1.07750
O70         O  0.82721454  0.62230605  0.28425000    -0.64400
Ni71       Ni  0.82149064  0.59540649  0.21922333     1.26350
O72         O  0.86071090  0.58938777  0.09802322    -0.64630
O73         O  0.77159672  0.59814967  0.22797412    -0.76920
C74         C  0.82918866  0.52947718  0.23887127     0.86520
O75         O  0.82224254  0.55671850  0.26490307    -0.64100
Ni76       Ni  0.81027950  0.67655896  0.20082871     1.27450
Ni77       Ni  0.87101567  0.62724067  0.15048312     1.26060
H78         H  0.88373609  0.60795231  0.23692936     0.41070
O79         O  0.85770098  0.45396573  0.22491958    -0.78890
O80         O  0.86701950  0.31753618  0.34152693    -0.63580
O81         O  0.87184112  0.38422706  0.22913266    -1.10180
C82         C  0.75663671  0.35363957  0.19203724     1.08000
O83         O  0.84397935  0.27863332  0.28286515    -0.76790
O84         O  0.84740828  0.30703479  0.18181156    -0.64370
Ni85       Ni  0.89875219  0.42544278  0.23238630     1.34870
C86         C  0.84850201  0.33230154  0.14835777     0.86740
O87         O  0.92077927  0.35736512  0.30274684    -0.77320
O88         O  0.94065687  0.39800838  0.24360641    -0.87600
C89         C  0.85775387  0.28635605  0.32856946     0.86310
O90         O  0.89580135  0.43341313  0.30778383    -0.65800
O91         O  0.77238130  0.32353337  0.19189117    -0.85090
C92         C  0.87589358  0.42083569  0.34389745     0.87140
C93         C  0.94564356  0.37429029  0.27941588     1.08710
H94         H  0.80710100  0.35230100  0.29901360     0.40510
O95         O  0.82224223  0.34725339  0.26860677    -1.07750
O96         O  0.82728931  0.35751210  0.15328126    -0.64400
Ni97       Ni  0.82149300  0.38431813  0.21838206     1.26350
O98         O  0.86067348  0.39056871  0.33954428    -0.64630
O99         O  0.77160609  0.38134466  0.20961186    -0.76920
C100        C  0.82909690  0.45032180  0.19875315     0.86520
O101        O  0.82211056  0.42305743  0.17277871    -0.64100
Ni102      Ni  0.81064773  0.30310704  0.23664451     1.27450
Ni103      Ni  0.87108725  0.35266708  0.28718891     1.26060
H104        H  0.88378787  0.37193653  0.20075451     0.41070
O105        O  0.77680949  0.37318827  0.96308553    -0.78890
O106        O  0.91307198  0.36411991  0.84567758    -0.63580
O107        O  0.84656208  0.35928672  0.95833303    -1.10180
C108        C  0.87682258  0.47460325  0.99507227     1.08000
O109        O  0.95200865  0.38760584  0.90389352    -0.76790
O110        O  0.92385966  0.38405088  0.00507424    -0.64370
Ni111      Ni  0.80542427  0.33225639  0.95538622     1.34870
C112        C  0.89867834  0.38285141  0.03866304     0.86740
O113        O  0.87345895  0.31032227  0.88477365    -0.77320
O114        O  0.83290283  0.29042651  0.94402467    -0.87600
C115        C  0.94424380  0.37354351  0.85841880     0.86310
O116        O  0.79722599  0.33520851  0.88004006    -0.65800
O117        O  0.90699110  0.45898450  0.99506824    -0.85090
C118        C  0.80979544  0.35493124  0.84367465     0.87140
C119        C  0.85654554  0.28545674  0.90811897     1.08710
H120        H  0.87810371  0.42402334  0.88807017     0.40510
O121        O  0.88329133  0.40895431  0.91851112    -1.07750
O122        O  0.87337186  0.40397160  0.03388788    -0.64400
Ni123      Ni  0.84633961  0.40964130  0.96895632     1.26350
O124        O  0.84004667  0.37020630  0.84782752    -0.64630
O125        O  0.84915661  0.45953893  0.97756529    -0.76920
C126        C  0.78035847  0.40177786  0.98929730     0.86520
O127        O  0.80773094  0.40899459  0.01486537    -0.64100
Ni128      Ni  0.92747004  0.42081264  0.95020357     1.27450
Ni129      Ni  0.87803294  0.36004886  0.90015204     1.26060
H130        H  0.85893443  0.34740808  0.98669880     0.41070
O131        O  0.70495970  0.37213185  0.97530545    -0.78890
O132        O  0.56848623  0.36276623  0.09157156    -0.63580
O133        O  0.63518153  0.35788472  0.97924329    -1.10180
C134        C  0.60483679  0.47311710  0.94198524     1.08000
O135        O  0.52961468  0.38598211  0.03300903    -0.76790
O136        O  0.55793173  0.38245454  0.93196261    -0.64370
Ni137      Ni  0.67642871  0.33102247  0.98264614     1.34870
C138        C  0.58318399  0.38126817  0.89850661     0.86740
O139        O  0.60830123  0.30900111  0.05290271    -0.77320
O140        O  0.64897287  0.28909710  0.99384758    -0.87600
C141        C  0.53731696  0.37204480  0.07860532     0.86310
O142        O  0.68431780  0.33396782  0.05806194    -0.65800
O143        O  0.57467909  0.45744414  0.94190016    -0.85090
C144        C  0.67177334  0.35397165  0.09405342     0.87140
C145        C  0.62524254  0.28412470  0.02965655     1.08710
H146        H  0.60338482  0.42268330  0.04905095     0.40510
O147        O  0.59828113  0.40754305  0.01866095    -1.07750
O148        O  0.60848421  0.40240184  0.90337098    -0.64400
Ni149      Ni  0.63533173  0.40821081  0.96842958     1.26350
O150        O  0.64151771  0.36917421  0.08962416    -0.64630
O151        O  0.63249571  0.45809389  0.95957608    -0.76920
C152        C  0.70121645  0.40073394  0.94916979     0.86520
O153        O  0.67403661  0.40745554  0.92284691    -0.64100
Ni154      Ni  0.55416044  0.41924195  0.98673763     1.27450
Ni155      Ni  0.60362448  0.35869076  0.03727599     1.26060
H156        H  0.62289500  0.34593597  0.95084225     0.41070
O157        O  0.62377499  0.52507607  0.72484603    -0.78890
O158        O  0.61463339  0.66133400  0.84195595    -0.63580
O159        O  0.60973811  0.59483008  0.72932880    -1.10180
C160        C  0.72499415  0.62525021  0.69236602     1.08000
O161        O  0.63785171  0.70028797  0.78351542    -0.76790
O162        O  0.63434350  0.67210191  0.68237263    -0.64370
Ni163      Ni  0.58276769  0.55364448  0.73240405     1.34870
C164        C  0.63317983  0.64690432  0.64881565     0.86740
O165        O  0.56082896  0.62164190  0.80299667    -0.77320
O166        O  0.54090742  0.58111888  0.74370438    -0.87600
C167        C  0.62394899  0.69252198  0.82910827     0.86310
O168        O  0.58570115  0.54553296  0.80777587    -0.65800
O169        O  0.70932350  0.65539313  0.69235936    -0.85090
C170        C  0.60562171  0.55801807  0.84394897     0.87140
C171        C  0.53594730  0.60478511  0.77959016     1.08710
H172        H  0.67452371  0.62649561  0.79937837     0.40510
O173        O  0.65940171  0.63163935  0.76898213    -1.07750
O174        O  0.65433194  0.62163077  0.65361980    -0.64400
Ni175      Ni  0.66008001  0.59467209  0.71859461     1.26350
O176        O  0.62087455  0.58827793  0.83972879    -0.64630
O177        O  0.70996975  0.59755170  0.70985096    -0.76920
C178        C  0.65238538  0.52874157  0.69871024     0.86520
O179        O  0.65937810  0.55603599  0.67281042    -0.64100
Ni180      Ni  0.67111660  0.67582000  0.73721106     1.27450
Ni181      Ni  0.61053580  0.62628709  0.78750065     1.26060
H182        H  0.59781765  0.60718879  0.70098681     0.41070
O183        O  0.62375157  0.45323146  0.71273345    -0.78890
O184        O  0.61473477  0.31689647  0.59569871    -0.63580
O185        O  0.60979714  0.38342801  0.70825317    -1.10180
C186        C  0.72517377  0.35348873  0.74514241     1.08000
O187        O  0.63837096  0.27801805  0.65386908    -0.76790
O188        O  0.63474049  0.30612524  0.75502931    -0.64370
Ni189      Ni  0.58278149  0.42457724  0.70510761     1.34870
C190        C  0.63345588  0.33130487  0.78859970     0.86740
O191        O  0.56091911  0.35645958  0.63462186    -0.77320
O192        O  0.54094411  0.39704863  0.69372922    -0.87600
C193        C  0.62413174  0.28573758  0.60850148     0.86310
O194        O  0.58576703  0.43268726  0.62973908    -0.65800
O195        O  0.70964226  0.32326046  0.74510616    -0.85090
C196        C  0.60562889  0.42016076  0.59353899     0.87140
C197        C  0.53601794  0.37335890  0.65786456     1.08710
H198        H  0.67462022  0.35202572  0.63809557     0.40510
O199        O  0.65955017  0.34678952  0.66851699    -1.07750
O200        O  0.65449390  0.35669531  0.78384804    -0.64400
Ni201      Ni  0.66013451  0.38374369  0.71894133     1.26350
O202        O  0.62087735  0.38991933  0.59778836    -0.64630
O203        O  0.71003200  0.38109534  0.72762406    -0.76920
C204        C  0.65234464  0.44960710  0.73892117     0.86520
O205        O  0.65932578  0.42232058  0.76482283    -0.64100
Ni206      Ni  0.67152004  0.30265478  0.70020054     1.27450
Ni207      Ni  0.61064012  0.35195006  0.65010451     1.26060
H208        H  0.59792336  0.37105920  0.73664405     0.41070
O209        O  0.63786874  0.20021378  0.15461619    -0.78890
O210        O  0.65915523  0.05596790  0.26553669    -0.63580
O211        O  0.65932463  0.13153720  0.16926502    -1.10180
C212        C  0.53583688  0.10479990  0.15833486     1.08000
O213        O  0.62350380  0.02502170  0.21357518    -0.76790
O214        O  0.58560394  0.04548545  0.13046382    -0.64370
Ni215      Ni  0.67109619  0.17571762  0.20096842     1.34870
C216        C  0.60553179  0.05797681  0.09429947     0.86740
O217        O  0.70983263  0.09739649  0.22846776    -0.77320
O218        O  0.70928212  0.15525350  0.24583958    -0.87600
C219        C  0.65213779  0.02867469  0.23965705     0.86310
O220        O  0.63430427  0.17207162  0.25578491    -0.65800
O221        O  0.54072462  0.08115436  0.19428748    -0.85090
C222        C  0.63308173  0.14688081  0.28935667     0.87140
C223        C  0.72491981  0.12509226  0.24583824     1.08710
H224        H  0.59766558  0.10718876  0.23720743     0.40510
O225        O  0.60958462  0.09480519  0.20889720    -1.07750
O226        O  0.62079303  0.08822809  0.09851875    -0.64400
Ni227      Ni  0.61046244  0.12624900  0.15068264     1.26350
O228        O  0.65421445  0.12158727  0.28462021    -0.64630
O229        O  0.56076775  0.12165532  0.13505493    -0.76920
C230        C  0.62399045  0.19244689  0.10900604     0.86520
O231        O  0.61464434  0.16126600  0.09618918    -0.64100
Ni232      Ni  0.58254940  0.05364843  0.20581299     1.27450
Ni233      Ni  0.65993307  0.09458447  0.21969582     1.26060
H234        H  0.67445206  0.12635835  0.13889411     0.41070
O235        O  0.63823677  0.77806004  0.28389915    -0.78890
O236        O  0.65928883  0.92238311  0.17287029    -0.63580
O237        O  0.65943371  0.84682338  0.26918765    -1.10180
C238        C  0.53590157  0.87337675  0.27961581     1.08000
O239        O  0.62361106  0.95326178  0.22482899    -0.76790
O240        O  0.58559301  0.93272365  0.30778397    -0.64370
Ni241      Ni  0.67139108  0.80267349  0.23755366     1.34870
C242        C  0.60541123  0.92020032  0.34405634     0.86740
O243        O  0.70995181  0.88108363  0.21007970    -0.77320
O244        O  0.70951462  0.82324577  0.19263981    -0.87600
C245        C  0.65224171  0.94966816  0.19874072     0.86310
O246        O  0.63461791  0.80615150  0.18271399    -0.65800
O247        O  0.54084380  0.89704411  0.24371903    -0.85090
C248        C  0.63333782  0.83132267  0.14911690     0.87140
C249        C  0.72507363  0.85345706  0.19260099     1.08710
H250        H  0.59783955  0.87109223  0.20099824     0.40510
O251        O  0.60970700  0.88346830  0.22938096    -1.07750
O252        O  0.62069681  0.88997507  0.33984920    -0.64400
Ni253      Ni  0.61051701  0.85199244  0.28754599     1.26350
O254        O  0.65438790  0.85671169  0.15383732    -0.64630
O255        O  0.56078814  0.85649848  0.30294259    -0.76920
C256        C  0.62405337  0.78580336  0.32928970     0.86520
O257        O  0.61460360  0.81695881  0.34201052    -0.64100
Ni258      Ni  0.58266445  0.92459445  0.23240864     1.27450
Ni259      Ni  0.66005154  0.88377273  0.21873527     1.26060
H260        H  0.67449306  0.85205832  0.29962298     0.41070
O261        O  0.95192166  0.09290551  0.40533518    -0.78890
O262        O  0.80727717  0.07141342  0.51479976    -0.63580
O263        O  0.88323754  0.07127175  0.41936229    -1.10180
C264        C  0.85636097  0.19468031  0.40798073     1.08000
O265        O  0.77648105  0.10681463  0.46225792    -0.76790
O266        O  0.79730779  0.14488275  0.37951070    -0.64370
Ni267      Ni  0.92729611  0.05963402  0.45151975     1.34870
C268        C  0.80984347  0.12478229  0.34364186     0.86740
O269        O  0.84890202  0.02075642  0.47832373    -0.77320
O270        O  0.90669228  0.02142086  0.49625036    -0.87600
C271        C  0.78012560  0.07822473  0.48845893     0.86310
O272        O  0.92337079  0.09643266  0.50627622    -0.65800
O273        O  0.83260465  0.18976254  0.44376498    -0.85090
C274        C  0.89804696  0.09760298  0.53961274     0.87140
C275        C  0.87653792  0.00573640  0.49601774     1.08710
H276        H  0.85854272  0.13292252  0.48694856     0.40510
O277        O  0.84628261  0.12096336  0.45853228    -1.07750
O278        O  0.84008267  0.10955568  0.34818547    -0.64400
Ni279      Ni  0.87792455  0.12009572  0.40060823     1.26350
O280        O  0.87277398  0.07645413  0.53461182    -0.64630
O281        O  0.87328843  0.16976434  0.38481934    -0.76920
C282        C  0.94430995  0.10675739  0.35963569     0.86520
O283        O  0.91315255  0.11595598  0.34646447    -0.64100
Ni284      Ni  0.80508145  0.14787731  0.45494144     1.27450
Ni285      Ni  0.84608161  0.07063790  0.46940772     1.26060
H286        H  0.87820595  0.05610004  0.38898089     0.41070
O287        O  0.52913449  0.09188186  0.53356418    -0.78890
O288        O  0.67352456  0.07043396  0.42301196    -0.63580
O289        O  0.59785608  0.07048223  0.51913716    -1.10180
C290        C  0.62469264  0.19395642  0.52962321     1.08000
O291        O  0.70444554  0.10611731  0.47499322    -0.76790
O292        O  0.68393063  0.14414482  0.55795215    -0.64370
Ni293      Ni  0.55370926  0.05866814  0.48730017     1.34870
C294        C  0.67129737  0.12440666  0.59424282     0.86740
O295        O  0.63202949  0.01988737  0.46014554    -0.77320
O296        O  0.57421802  0.02048825  0.44246710    -0.87600
C297        C  0.70086262  0.07755163  0.44872537     0.86310
O298        O  0.55742111  0.09544410  0.43246537    -0.65800
O299        O  0.64841064  0.18896670  0.49383518    -0.85090
C300        C  0.58264842  0.09662157  0.39895671     0.87140
C301        C  0.60437770  0.00484922  0.44253126     1.08710
H302        H  0.62237225  0.13202601  0.45104588     0.40510
O303        O  0.63468727  0.12012748  0.47945222    -1.07750
O304        O  0.64103602  0.10916781  0.58997140    -0.64400
Ni305      Ni  0.60313709  0.11938197  0.53752303     1.26350
O306        O  0.60792550  0.07547693  0.40380440    -0.64630
O307        O  0.60773078  0.16910293  0.55291535    -0.76920
C308        C  0.53685802  0.10597420  0.57903585     0.86520
O309        O  0.56802489  0.11534901  0.59187547    -0.64100
Ni310      Ni  0.67586422  0.14709921  0.48257688     1.27450
Ni311      Ni  0.63487077  0.06978096  0.46880453     1.26060
H312        H  0.60299234  0.05540329  0.54958701     0.41070
O313        O  0.95188198  0.88767670  0.03394397    -0.78890
O314        O  0.80749516  0.90848534  0.92314510    -0.63580
O315        O  0.88309704  0.90880298  0.01938104    -1.10180
C316        C  0.85679154  0.78522241  0.02995781     1.08000
O317        O  0.77671133  0.87265235  0.97505610    -0.76790
O318        O  0.79734073  0.83474245  0.05805943    -0.64370
Ni319      Ni  0.92721748  0.92082769  0.98768685     1.34870
C320        C  0.80980322  0.85463496  0.09429005     0.86740
O321        O  0.84872932  0.95924097  0.96035009    -0.77320
O322        O  0.90657311  0.95894825  0.94288539    -0.87600
C323        C  0.78021184  0.90129027  0.94894246     0.86310
O324        O  0.92373905  0.88407847  0.93280203    -0.65800
O325        O  0.83312558  0.79007865  0.99404003    -0.85090
C326        C  0.89854818  0.88276397  0.89924139     0.87140
C327        C  0.87634185  0.97444698  0.94292827     1.08710
H328        H  0.85894000  0.84714996  0.95125558     0.40510
O329        O  0.84653424  0.85898345  0.97962868    -1.07750
O330        O  0.84000004  0.87000289  0.09007387    -0.64400
Ni331      Ni  0.87801029  0.85989267  0.03779389     1.26350
O332        O  0.87314461  0.90376672  0.90402659    -0.64630
O333        O  0.87359971  0.81016775  0.05326922    -0.76920
C334        C  0.94418850  0.87355763  0.07940948     0.86520
O335        O  0.91304568  0.86409481  0.09223150    -0.64100
Ni336      Ni  0.80547845  0.83180775  0.98268904     1.27450
Ni337      Ni  0.84612253  0.90933144  0.96897824     1.26060
H338        H  0.87786047  0.92386036  0.04980917     0.41070
O339        O  0.52966769  0.88616554  0.90462803    -0.78890
O340        O  0.67388105  0.90749405  0.01560106    -0.63580
O341        O  0.59834125  0.90766297  0.91931493    -1.10180
C342        C  0.62516509  0.78421899  0.90835299     1.08000
O343        O  0.70488983  0.87205185  0.96345866    -0.76790
O344        O  0.68444104  0.83410268  0.88037070    -0.64370
Ni345      Ni  0.55415931  0.91937178  0.95104683     1.34870
C346        C  0.67192869  0.85404693  0.84425507     0.86740
O347        O  0.63246861  0.95816057  0.97859681    -0.77320
O348        O  0.57461742  0.95753161  0.99601337    -0.87600
C349        C  0.70116099  0.90064438  0.98960781     0.86310
O350        O  0.55780816  0.88254095  0.00580142    -0.65800
O351        O  0.64885430  0.78914370  0.94423421    -0.85090
C352        C  0.58299625  0.88134500  0.03937649     0.87140
C353        C  0.60478464  0.97318453  0.99608339     1.08710
H354        H  0.62274711  0.84599938  0.98721541     0.40510
O355        O  0.63510873  0.85795166  0.95889756    -1.07750
O356        O  0.64165810  0.86924012  0.84851849    -0.64400
Ni357      Ni  0.60365898  0.85881237  0.90070293     1.26350
O358        O  0.60828499  0.90249967  0.03464847    -0.64630
O359        O  0.60828501  0.80912471  0.88507251    -0.76920
C360        C  0.53744442  0.87225731  0.85904921     0.86520
O361        O  0.56863044  0.86295202  0.84623311    -0.64100
Ni362      Ni  0.67631784  0.83102209  0.95573170     1.27450
Ni363      Ni  0.63529001  0.90828103  0.96974657     1.26060
H364        H  0.60351623  0.92281128  0.88895803     0.41070
O365        O  0.84270984  0.20126546  0.78390228    -0.78890
O366        O  0.82162827  0.05674631  0.67361543    -0.63580
O367        O  0.82142888  0.13249045  0.76954503    -1.10180
C368        C  0.94494150  0.10595668  0.78044763     1.08000
O369        O  0.85728415  0.02595327  0.72578388    -0.76790
O370        O  0.89522669  0.04666536  0.80872711    -0.64370
Ni371      Ni  0.80954467  0.17657765  0.73764199     1.34870
C372        C  0.87531382  0.05920958  0.84484207     0.86740
O373        O  0.77094845  0.09812101  0.71053032    -0.77320
O374        O  0.77141643  0.15592794  0.69280288    -0.87600
C375        C  0.82871010  0.02947936  0.69951369     0.86310
O376        O  0.84633928  0.17294130  0.68284918    -0.65800
O377        O  0.94004308  0.08222511  0.74464095    -0.85090
C378        C  0.84760313  0.14769728  0.64938445     0.87140
C379        C  0.75584815  0.12571821  0.69287989     1.08710
H380        H  0.88306994  0.10809063  0.70162412     0.40510
O381        O  0.87117969  0.09576043  0.73003565    -1.07750
O382        O  0.86003725  0.08943100  0.84048029    -0.64400
Ni383      Ni  0.87031569  0.12732970  0.78806070     1.26350
O384        O  0.82653968  0.12233566  0.65424647    -0.64630
O385        O  0.92001915  0.12284447  0.80364485    -0.76920
C386        C  0.85689906  0.19361569  0.82933783     0.86520
O387        O  0.86620365  0.16246361  0.84232200    -0.64100
Ni388      Ni  0.89822614  0.05464930  0.73334244     1.27450
Ni389      Ni  0.82084318  0.09543625  0.71929380     1.26060
H390        H  0.80633238  0.12733270  0.79996723     0.41070
O391        O  0.84395190  0.77857434  0.65494652    -0.78890
O392        O  0.82230162  0.92292007  0.76517302    -0.63580
O393        O  0.82225869  0.84719492  0.66927339    -1.10180
C394        C  0.94566770  0.87423676  0.65823192     1.08000
O395        O  0.85774676  0.95389685  0.71290819    -0.76790
O396        O  0.89581651  0.93335511  0.63001155    -0.64370
Ni397      Ni  0.81067466  0.80304416  0.70124617     1.34870
C398        C  0.87584468  0.92082222  0.59395048     0.86740
O399        O  0.77169856  0.88128968  0.72842079    -0.77320
O400        O  0.77245825  0.82347026  0.74609889    -0.87600
C401        C  0.82916610  0.95017653  0.73910862     0.86310
O402        O  0.84748888  0.80692976  0.75601147    -0.65800
O403        O  0.94070936  0.89793255  0.69408254    -0.85090
C404        C  0.84860513  0.83218273  0.78947724     0.87140
C405        C  0.75673755  0.85358996  0.74604235     1.08710
H406        H  0.88387946  0.87182537  0.73702252     0.40510
O407        O  0.87191186  0.88413412  0.70867392    -1.07750
O408        O  0.86062564  0.89055100  0.59829675    -0.64400
Ni409      Ni  0.87109402  0.85260902  0.65059252     1.26350
O410        O  0.82740034  0.85739717  0.78458782    -0.64630
O411        O  0.92078002  0.85731877  0.63493699    -0.76920
C412        C  0.85773159  0.78629763  0.60924484     0.86520
O413        O  0.86697521  0.81748394  0.59625603    -0.64100
Ni414      Ni  0.89880988  0.92536784  0.70539314     1.27450
Ni415      Ni  0.82157936  0.88423194  0.71952845     1.26060
H416        H  0.80708762  0.85226349  0.63890500     0.41070
O417        O  0.35732133  0.02534974  0.71316837    -0.78890
O418        O  0.36650382  0.16172927  0.59603937    -0.63580
O419        O  0.37131284  0.09510959  0.70855492    -1.10180
C420        C  0.25604595  0.12555098  0.74543305     1.08000
O421        O  0.34336505  0.20063496  0.65457497    -0.76790
O422        O  0.34679123  0.17231480  0.75567212    -0.64370
Ni423      Ni  0.39829793  0.05396197  0.70547333     1.34870
C424        C  0.34790896  0.14707665  0.78917366     0.86740
O425        O  0.42025508  0.12201102  0.63489516    -0.77320
O426        O  0.44016909  0.08144134  0.69408244    -0.87600
C427        C  0.35725094  0.19291281  0.60895738     0.86310
O428        O  0.39528041  0.04584742  0.63011886    -0.65800
O429        O  0.27177205  0.15567862  0.74554283    -0.85090
C430        C  0.37546822  0.05841175  0.59387581     0.87140
C431        C  0.44513186  0.10510980  0.65819309     1.08710
H432        H  0.30657975  0.12686424  0.63852487     0.40510
O433        O  0.32170014  0.13196608  0.66894226    -1.07750
O434        O  0.32670373  0.12183710  0.78430104    -0.64400
Ni435      Ni  0.32095217  0.09494255  0.71926145     1.26350
O436        O  0.36024269  0.08867428  0.59810603    -0.64630
O437        O  0.27105182  0.09785075  0.72795562    -0.76920
C438        C  0.32871554  0.02891393  0.73933857     0.86520
O439        O  0.32154909  0.05625205  0.76500716    -0.64100
Ni440      Ni  0.31004252  0.17612748  0.70079593     1.27450
Ni441      Ni  0.37056147  0.12663009  0.65042924     1.26060
H442        H  0.38323628  0.10745225  0.73691099     0.41070
O443        O  0.35800021  0.95335337  0.72542826    -0.78890
O444        O  0.36702695  0.81680460  0.84160202    -0.63580
O445        O  0.37203898  0.88354696  0.72935008    -1.10180
C446        C  0.25673498  0.85342093  0.69205835     1.08000
O447        O  0.34362513  0.77798489  0.78311304    -0.76790
O448        O  0.34727313  0.80634725  0.68206403    -0.64370
Ni449      Ni  0.39901898  0.92473349  0.73276311     1.34870
C450        C  0.34853140  0.83161032  0.64862189     0.86740
O451        O  0.42087435  0.85652328  0.80293559    -0.77320
O452        O  0.44086881  0.89719643  0.74392471    -0.87600
C453        C  0.35766495  0.78565662  0.82865096     0.86310
O454        O  0.39609503  0.93259379  0.80818656    -0.65800
O455        O  0.27233035  0.82323635  0.69195990    -0.85090
C456        C  0.37610223  0.92004213  0.84420668     0.87140
C457        C  0.44578764  0.87344272  0.77970814     1.08710
H458        H  0.30717435  0.85183477  0.79916961     0.40510
O459        O  0.32229121  0.84671383  0.76876326    -1.07750
O460        O  0.32745684  0.85694484  0.65348757    -0.64400
Ni461      Ni  0.32171177  0.88378922  0.71855564     1.26350
O462        O  0.36081552  0.88982123  0.83975388    -0.64630
O463        O  0.27181963  0.88103954  0.70970558    -0.76920
C464        C  0.32939682  0.94969628  0.69926441     0.86520
O465        O  0.32255246  0.92251921  0.67299700    -0.64100
Ni466      Ni  0.31045966  0.80262667  0.73681879     1.27450
Ni467      Ni  0.37116795  0.85195324  0.78734008     1.26060
H468        H  0.38395433  0.87125779  0.70093280     0.41070
O469        O  0.20487499  0.87265460  0.47465965    -0.78890
O470        O  0.06859168  0.86375373  0.59195764    -0.63580
O471        O  0.13507111  0.85882599  0.47928162    -1.10180
C472        C  0.10502053  0.97420638  0.44268698     1.08000
O473        O  0.02970495  0.88712191  0.53357931    -0.76790
O474        O  0.05786590  0.88368400  0.43242701    -0.64370
Ni475      Ni  0.17616441  0.83173973  0.48225308     1.34870
C476        C  0.08305641  0.88249739  0.39885939     0.86740
O477        O  0.10812176  0.80992139  0.55290333    -0.77320
O478        O  0.14856789  0.78994805  0.49356438    -0.87600
C479        C  0.03742622  0.87313158  0.57912502     0.86310
O480        O  0.18433818  0.83463697  0.55761830    -0.65800
O481        O  0.07482527  0.95861160  0.44263523    -0.85090
C482        C  0.17189512  0.85451032  0.59387382     0.87140
C483        C  0.12492352  0.78502378  0.52949807     1.08710
H484        H  0.10362737  0.92360336  0.54951374     0.40510
O485        O  0.09842925  0.90853048  0.51908247    -1.07750
O486        O  0.10839466  0.90358733  0.40370369    -0.64400
Ni487      Ni  0.13539335  0.90918023  0.46867510     1.26350
O488        O  0.14167149  0.86982124  0.58971869    -0.64630
O489        O  0.13267586  0.95908385  0.46008929    -0.76920
C490        C  0.20131555  0.90130600  0.44860307     0.86520
O491        O  0.17401305  0.90845411  0.42283468    -0.64100
Ni492      Ni  0.05427729  0.92039220  0.48737135     1.27450
Ni493      Ni  0.10362400  0.85963765  0.53748232     1.26060
H494        H  0.12266326  0.84697118  0.45092108     0.41070
O495        O  0.27671181  0.87227909  0.46300208    -0.78890
O496        O  0.41302109  0.86340866  0.34591005    -0.63580
O497        O  0.34651419  0.85833260  0.45848450    -1.10180
C498        C  0.37657107  0.97369250  0.49555494     1.08000
O499        O  0.45193935  0.88692384  0.40414595    -0.76790
O500        O  0.42382775  0.88321714  0.50531408    -0.64370
Ni501      Ni  0.30533813  0.83131233  0.45526779     1.34870
C502        C  0.39864372  0.88191204  0.53888176     0.86740
O503        O  0.37344502  0.80954561  0.38472218    -0.77320
O504        O  0.33284107  0.78948266  0.44376848    -0.87600
C505        C  0.44419475  0.87276196  0.35873017     0.86310
O506        O  0.29722879  0.83439811  0.37990233    -0.65800
O507        O  0.40678274  0.95814795  0.49549908    -0.85090
C508        C  0.30976157  0.85433042  0.34377744     0.87140
C509        C  0.35655219  0.78460640  0.40791947     1.08710
H510        H  0.37796808  0.92323984  0.38847092     0.40510
O511        O  0.38319172  0.90813326  0.41885340    -1.07750
O512        O  0.37328804  0.90297320  0.53417311    -0.64400
Ni513      Ni  0.34624206  0.90866242  0.46928670     1.26350
O514        O  0.34001719  0.86956487  0.34806775    -0.64630
O515        O  0.34893522  0.95855660  0.47807867    -0.76920
C516        C  0.28039396  0.90086676  0.48918574     0.86520
O517        O  0.30767001  0.90777870  0.51516551    -0.64100
Ni518      Ni  0.42734501  0.92004632  0.45054531     1.27450
Ni519      Ni  0.37798440  0.85924823  0.40032577     1.26060
H520        H  0.35887774  0.84642495  0.48683953     0.41070
O521        O  0.12375405  0.02589919  0.22574878    -0.78890
O522        O  0.11496784  0.16229947  0.34240426    -0.63580
O523        O  0.10982273  0.09570476  0.22997316    -1.10180
C524        C  0.22518363  0.12560200  0.19274639     1.08000
O525        O  0.13852566  0.20113414  0.28406247    -0.76790
O526        O  0.13478517  0.17295630  0.18294920    -0.64370
Ni527      Ni  0.08279093  0.05455005  0.23329584     1.34870
C528        C  0.13344219  0.14775059  0.14942626     0.86740
O529        O  0.06105767  0.12269358  0.30370967    -0.77320
O530        O  0.04098412  0.08209673  0.24465657    -0.87600
C531        C  0.12436995  0.19344748  0.32950753     0.86310
O532        O  0.08579957  0.04654675  0.30867912    -0.65800
O533        O  0.20967842  0.15583196  0.19275764    -0.85090
C534        C  0.10578730  0.05905243  0.34474320     0.87140
C535        C  0.03611366  0.10579485  0.28052482     1.08710
H536        H  0.17476137  0.12716413  0.29988614     0.40510
O537        O  0.15965395  0.13237310  0.26949904    -1.07750
O538        O  0.15444311  0.12234590  0.15419533    -0.64400
Ni539      Ni  0.16014482  0.09537667  0.21916257     1.26350
O540        O  0.12107954  0.08927476  0.34038413    -0.64630
O541        O  0.21003414  0.09800979  0.21034274    -0.76920
C542        C  0.15232999  0.02952465  0.19951475     0.86520
O543        O  0.15923575  0.05675086  0.17341000    -0.64100
Ni544      Ni  0.17161631  0.17647465  0.23770159     1.27450
Ni545      Ni  0.11076694  0.12721412  0.28806755     1.26060
H546        H  0.09792826  0.10805342  0.20158561     0.41070
O547        O  0.12394471  0.95408821  0.21337492    -0.78890
O548        O  0.11454710  0.81792969  0.09584177    -0.63580
O549        O  0.10980631  0.88436078  0.20860203    -1.10180
C550        C  0.22501322  0.85381474  0.24549006     1.08000
O551        O  0.13773694  0.77892313  0.15419922    -0.76790
O552        O  0.13428445  0.80703150  0.25538119    -0.64370
Ni553      Ni  0.08289981  0.92556687  0.20566474     1.34870
C554        C  0.13318076  0.83219903  0.28899243     0.86740
O555        O  0.06082768  0.85762856  0.13492086    -0.77320
O556        O  0.04098933  0.89815670  0.19423979    -0.87600
C557        C  0.12381962  0.78672509  0.10863557     0.86310
O558        O  0.08586841  0.93379507  0.13032891    -0.65800
O559        O  0.20929555  0.82368466  0.24542212    -0.85090
C560        C  0.10565475  0.92127301  0.09402795     0.87140
C561        C  0.03598351  0.87451241  0.15832972     1.08710
H562        H  0.17451804  0.85271257  0.13844181     0.40510
O563        O  0.15939789  0.84755307  0.16883563    -1.07750
O564        O  0.15438806  0.85744251  0.28423136    -0.64400
Ni565      Ni  0.16015325  0.88446693  0.21932406     1.26350
O566        O  0.12085373  0.89098850  0.09815228    -0.64630
O567        O  0.21003911  0.88153682  0.22803643    -0.76920
C568        C  0.15253896  0.95039137  0.23954003     0.86520
O569        O  0.15954182  0.92303401  0.26525802    -0.64100
Ni570      Ni  0.17104753  0.80333188  0.20053074     1.27450
Ni571      Ni  0.11052968  0.85294868  0.15036134     1.26060
H572        H  0.09787270  0.87198444  0.23691868     0.41070
O573        O  0.20461944  0.10711297  0.96172987    -0.78890
O574        O  0.06789251  0.11640255  0.84634975    -0.63580
O575        O  0.13483131  0.12133925  0.95832587    -1.10180
C576        C  0.10458349  0.00610134  0.99581131     1.08000
O577        O  0.02914598  0.09318152  0.90513277    -0.76790
O578        O  0.05771715  0.09672263  0.00607316    -0.64370
Ni579      Ni  0.17607632  0.14821813  0.95467909     1.34870
C580        C  0.08304976  0.09790726  0.03939918     0.86740
O581        O  0.10782006  0.17020827  0.88479932    -0.77320
O582        O  0.14858223  0.19012105  0.94373965    -0.87600
C583        C  0.03675071  0.10710516  0.85947860     0.86310
O584        O  0.18374231  0.14536064  0.87920857    -0.65800
O585        O  0.07442245  0.02174880  0.99603990    -0.85090
C586        C  0.17117599  0.12526668  0.84334381     0.87140
C587        C  0.12479877  0.19509111  0.90801370     1.08710
H588        H  0.10285466  0.05651363  0.88871000     0.40510
O589        O  0.09783196  0.07165675  0.91912283    -1.07750
O590        O  0.10834729  0.07680967  0.03435875    -0.64400
Ni591      Ni  0.13500761  0.07101869  0.96913143     1.26350
O592        O  0.14094259  0.11001555  0.84794353    -0.64630
O593        O  0.13219324  0.02113507  0.97802209    -0.76920
C594        C  0.20092824  0.07852052  0.98791443     0.86520
O595        O  0.17383277  0.07181586  0.01445592    -0.64100
Ni596      Ni  0.05379511  0.05993817  0.95130150     1.27450
Ni597      Ni  0.10315239  0.12050953  0.90045884     1.26060
H598        H  0.12261013  0.13327532  0.98679746     0.41070
O599        O  0.27662280  0.10604551  0.97460467    -0.78890
O600        O  0.41298709  0.11517724  0.09183892    -0.63580
O601        O  0.34637727  0.12004364  0.97932220    -1.10180
C602        C  0.37673190  0.00479142  0.94236599     1.08000
O603        O  0.45188798  0.09197834  0.03335176    -0.76790
O604        O  0.42358686  0.09549684  0.93225294    -0.64370
Ni605      Ni  0.30522393  0.14701264  0.98243214     1.34870
C606        C  0.39835771  0.09663328  0.89873893     0.86740
O607        O  0.37331878  0.16895013  0.05298654    -0.77320
O608        O  0.33268087  0.18887889  0.99391928    -0.87600
C609        C  0.44416186  0.10588470  0.07895022     0.86310
O610        O  0.29707731  0.14392872  0.05776914    -0.65800
O611        O  0.40687678  0.02048504  0.94228214    -0.85090
C612        C  0.30970681  0.12420551  0.09407209     0.87140
C613        C  0.35638197  0.19382743  0.02975702     1.08710
H614        H  0.37806749  0.05527896  0.04935035     0.40510
O615        O  0.38319130  0.07039940  0.01894026    -1.07750
O616        O  0.37311894  0.07542909  0.90358373    -0.64400
Ni617      Ni  0.34618564  0.06969347  0.96858453     1.26350
O618        O  0.33996935  0.10898695  0.08982661    -0.64630
O619        O  0.34905122  0.01980405  0.95988780    -0.76920
C620        C  0.28016971  0.07750109  0.94827592     0.86520
O621        O  0.30754895  0.07031602  0.92273262    -0.64100
Ni622      Ni  0.42735257  0.05871110  0.98708581     1.27450
Ni623      Ni  0.37789958  0.11926165  0.03745055     1.26060
H624        H  0.35871872  0.13197477  0.95096997     0.41070
O625        O  0.02961835  0.38724023  0.40397485    -0.78890
O626        O  0.17395270  0.40889201  0.51466814    -0.63580
O627        O  0.09830411  0.40873558  0.41850063    -1.10180
C628        C  0.12512030  0.28528366  0.40821919     1.08000
O629        O  0.20485468  0.37319388  0.46273779    -0.76790
O630        O  0.18436917  0.33505531  0.37987765    -0.64370
Ni631      Ni  0.05413496  0.42050470  0.45024329     1.34870
C632        C  0.17181391  0.35483607  0.34358844     0.86740
O633        O  0.13242169  0.45937738  0.47751993    -0.77320
O634        O  0.07459584  0.45870906  0.49508471    -0.87600
C635        C  0.20126954  0.40179869  0.48889595     0.86310
O636        O  0.05781745  0.38376265  0.50511368    -0.65800
O637        O  0.14880045  0.29030182  0.44406981    -0.85090
C638        C  0.08301626  0.38260815  0.53867591     0.87140
C639        C  0.10474678  0.47438275  0.49506693     1.08710
H640        H  0.12277151  0.34724071  0.48666191     0.40510
O641        O  0.13511190  0.35913727  0.45827229    -1.07750
O642        O  0.14156752  0.37008731  0.34779745    -0.64400
Ni643      Ni  0.10361116  0.35984203  0.40014089     1.26350
O644        O  0.10831953  0.40375142  0.53386348    -0.64630
O645        O  0.10822197  0.31011957  0.38480040    -0.76920
C646        C  0.03737559  0.37321400  0.35847834     0.86520
O647        O  0.06854811  0.36384667  0.34569852    -0.64100
Ni648      Ni  0.17627679  0.33218358  0.45525515     1.27450
Ni649      Ni  0.13528856  0.40948716  0.46888309     1.26060
H650        H  0.10345462  0.42381390  0.38805201     0.41070
O651        O  0.45202669  0.38662768  0.53314967    -0.78890
O652        O  0.30764923  0.40800505  0.42267250    -0.63580
O653        O  0.38334234  0.40808450  0.51866477    -1.10180
C654        C  0.35630451  0.28464679  0.52966737     1.08000
O655        O  0.27668122  0.37261555  0.47500529    -0.76790
O656        O  0.29722443  0.33454807  0.55790358    -0.64370
Ni657      Ni  0.42748332  0.41983766  0.48680788     1.34870
C658        C  0.30982231  0.35447286  0.59397192     0.86740
O659        O  0.34916955  0.45862681  0.45954226    -0.77320
O660        O  0.40698513  0.45800978  0.44190379    -0.87600
C661        C  0.28040996  0.40119628  0.44880669     0.86310
O662        O  0.42374578  0.38302709  0.43205414    -0.65800
O663        O  0.33258811  0.28961433  0.49384296    -0.85090
C664        C  0.39850907  0.38181469  0.39856345     0.87140
C665        C  0.37682808  0.47366093  0.44194593     1.08710
H666        H  0.35872947  0.34646899  0.45078906     0.40510
O667        O  0.34644139  0.35841425  0.47917802    -1.07750
O668        O  0.34010196  0.36965583  0.58959343    -0.64400
Ni669      Ni  0.37798852  0.35921927  0.53724180     1.26350
O670        O  0.37322071  0.40294903  0.40336633    -0.64630
O671        O  0.37329282  0.30952495  0.55286077    -0.76920
C672        C  0.44429806  0.37257726  0.57865894     0.86520
O673        O  0.41311718  0.36328330  0.59156220    -0.64100
Ni674      Ni  0.30518592  0.33153508  0.48251455     1.27450
Ni675      Ni  0.34631664  0.40874383  0.46836802     1.26060
H676        H  0.37822133  0.42321186  0.54905740     0.41070
O677        O  0.34391834  0.70066789  0.28291847    -0.78890
O678        O  0.32215953  0.55636296  0.17240181    -0.63580
O679        O  0.32223084  0.63201788  0.26850788    -1.10180
C680        C  0.44564813  0.60509834  0.27942482     1.08000
O681        O  0.35779730  0.52538995  0.22436026    -0.76790
O682        O  0.39575852  0.54585736  0.30743823    -0.64370
Ni683      Ni  0.31061070  0.67619177  0.23664265     1.34870
C684        C  0.37591947  0.55841703  0.34364042     0.86740
O685        O  0.27161694  0.59793362  0.20938501    -0.77320
O686        O  0.27236129  0.65576882  0.19182194    -0.87600
C687        C  0.32920669  0.52903194  0.19816595     0.86310
O688        O  0.34738797  0.67238482  0.18182200    -0.65800
O689        O  0.44069159  0.58143066  0.24353447    -0.85090
C690        C  0.34849333  0.64715614  0.14831623     0.87140
C691        C  0.25663591  0.62564036  0.19186548     1.08710
H692        H  0.38380371  0.60750281  0.20061842     0.40510
O693        O  0.37185965  0.59515793  0.22895653    -1.07750
O694        O  0.36071074  0.58868730  0.33938567    -0.64400
Ni695      Ni  0.37108190  0.62665598  0.28709354     1.26350
O696        O  0.32727736  0.62193017  0.15316848    -0.64630
O697        O  0.42076734  0.62200803  0.30269253    -0.76920
C698        C  0.35775498  0.69292683  0.32856823     0.86520
O699        O  0.36700145  0.66173916  0.34148975    -0.64100
Ni700      Ni  0.39880539  0.55397579  0.23208609     1.27450
Ni701      Ni  0.32150907  0.59501570  0.21817333     1.26060
H702        H  0.30708889  0.62691045  0.29889678     0.41070
O703        O  0.34328066  0.27797486  0.15433360    -0.78890
O704        O  0.32239844  0.42257822  0.26428107    -0.63580
O705        O  0.32204080  0.34673799  0.16858915    -1.10180
C706        C  0.44557537  0.37322959  0.15766233     1.08000
O707        O  0.35797679  0.45332093  0.21190921    -0.76790
O708        O  0.39599338  0.43247222  0.12914072    -0.64370
Ni709      Ni  0.31013830  0.30268030  0.20056959     1.34870
C710        C  0.37593843  0.41997739  0.09315478     0.86740
O711        O  0.27162257  0.38116907  0.22755449    -0.77320
O712        O  0.27203334  0.32336836  0.24536527    -0.87600
C713        C  0.32937395  0.44976195  0.23809840     0.86310
O714        O  0.34693935  0.30636241  0.25535768    -0.65800
O715        O  0.44070001  0.39698346  0.19344181    -0.85090
C716        C  0.34822600  0.33163254  0.28877693     0.87140
C717        C  0.25649153  0.35358004  0.24522178     1.08710
H718        H  0.38373202  0.37117414  0.23642452     0.40510
O719        O  0.37184606  0.38348687  0.20799588    -1.08070
O720        O  0.36061059  0.38977765  0.09760804    -0.64400
Ni721      Ni  0.37091992  0.35188946  0.15001914     1.26350
O722        O  0.32719670  0.35700143  0.28385911    -0.64630
O723        O  0.42063176  0.35637080  0.13441272    -0.76920
C724        C  0.35732402  0.28560710  0.10878270     0.86520
O725        O  0.36671526  0.31673967  0.09578177    -0.64100
Ni726      Ni  0.39891693  0.42460809  0.20456998     1.27450
Ni727      Ni  0.32151738  0.38383229  0.21875148     1.26060
H728        H  0.30693353  0.35187262  0.13817210     0.41070
O729        O  0.02954207  0.59291471  0.03322281    -0.78890
O730        O  0.17390423  0.57175626  0.92268505    -0.63580
O731        O  0.09823084  0.57151493  0.01867727    -1.10180
C732        C  0.12499549  0.69500844  0.02950496     1.08000
O733        O  0.20482465  0.60721154  0.97497693    -0.76790
O734        O  0.18421345  0.64528481  0.05782321    -0.64370
Ni735      Ni  0.05409002  0.55973597  0.98685009     1.34870
C736        C  0.17173469  0.62525271  0.09385824     0.86740
O737        O  0.13243835  0.52103295  0.95950113    -0.77320
O738        O  0.07460654  0.52160123  0.94192575    -0.87600
C739        C  0.20111476  0.57859117  0.94888344     0.86310
O740        O  0.05777744  0.59655084  0.93207718    -0.65800
O741        O  0.14870593  0.69008179  0.99366373    -0.85090
C742        C  0.08299573  0.59776615  0.89855569     0.87140
C743        C  0.10478116  0.50598552  0.94190583     1.08710
H744        H  0.12269078  0.63317415  0.95078601     0.40510
O745        O  0.13502662  0.62125212  0.97915527    -1.07750
O746        O  0.14149077  0.60999238  0.08951532    -0.64400
Ni747      Ni  0.10352477  0.62038355  0.03725861     1.26350
O748        O  0.10831136  0.57666809  0.90337134    -0.64630
O749        O  0.10813177  0.67009454  0.05283620    -0.76920
C750        C  0.03728226  0.60687096  0.07879203     0.86520
O751        O  0.06845304  0.61622998  0.09165070    -0.64100
Ni752      Ni  0.17622358  0.64823009  0.98241734     1.27450
Ni753      Ni  0.13523606  0.57092151  0.96835983     1.26060
H754        H  0.10338023  0.55638521  0.04906250     0.41070
O755        O  0.45190574  0.59178194  0.90403354    -0.78890
O756        O  0.30759695  0.57056736  0.01494794    -0.63580
O757        O  0.38316541  0.57043586  0.91862492    -1.10180
C758        C  0.35668242  0.69394941  0.90788069     1.08000
O759        O  0.27673157  0.60640005  0.96315444    -0.76790
O760        O  0.29723878  0.64424179  0.87998806    -0.64370
Ni761      Ni  0.42732838  0.55857109  0.95031961     1.34870
C762        C  0.30974735  0.62442837  0.84370749     0.86740
O763        O  0.34893692  0.51992333  0.97775257    -0.77320
O764        O  0.40679017  0.52040549  0.99516310    -0.87600
C765        C  0.28024985  0.57778943  0.98932892     0.86310
O766        O  0.42377830  0.59533675  0.00516541    -0.65800
O767        O  0.33302783  0.68906712  0.94380860    -0.85090
C768        C  0.39859421  0.59658701  0.03873579     0.87140
C769        C  0.37659787  0.50480943  0.99515630     1.08710
H770        H  0.35893526  0.63205909  0.98667645     0.40510
O771        O  0.34653017  0.62017896  0.95833998    -1.07750
O772        O  0.33997345  0.60913230  0.84788874    -0.64400
Ni773      Ni  0.37799003  0.61932134  0.90014695     1.26350
O774        O  0.37324744  0.57549354  0.03398843    -0.64630
O775        O  0.37351590  0.66902354  0.88460983    -0.76920
C776        C  0.44417731  0.60580877  0.85852104     0.86520
O777        O  0.41301266  0.61517058  0.84568660    -0.64100
Ni778      Ni  0.30545105  0.64728234  0.95532442     1.27450
Ni779      Ni  0.34621032  0.56982657  0.96906158     1.26060
H780        H  0.37795258  0.55534602  0.88821934     0.41070
O781        O  0.13828258  0.70108421  0.65399858    -0.78890
O782        O  0.15925617  0.55671345  0.76480802    -0.63580
O783        O  0.15945735  0.63233618  0.66865413    -1.10180
C784        C  0.03593692  0.60565300  0.65808365     1.08000
O785        O  0.12373351  0.52584041  0.71256613    -0.76790
O786        O  0.08565275  0.54642236  0.62970895    -0.64370
Ni787      Ni  0.17141271  0.67646808  0.70036050     1.34870
C788        C  0.10553431  0.55898922  0.59354965     0.86740
O789        O  0.20994329  0.59806514  0.72775258    -0.77320
O790        O  0.20951305  0.65588733  0.74529687    -0.87600
C791        C  0.15233710  0.52947858  0.73872731     0.86310
O792        O  0.13461662  0.67293493  0.75514701    -0.65800
O793        O  0.04088172  0.58192608  0.69388902    -0.85090
C794        C  0.13331222  0.64774184  0.78870435     0.87140
C795        C  0.22506406  0.62568302  0.74530101     1.08710
H796        H  0.09783242  0.60793262  0.73674658     0.40510
O797        O  0.10971890  0.59560823  0.70833744    -1.07750
O798        O  0.12080411  0.58922052  0.59788404    -0.64400
Ni799      Ni  0.11054921  0.62712791  0.65024522     1.26350
O800        O  0.15434835  0.62235785  0.78397231    -0.64630
O801        O  0.06082495  0.62257341  0.63479946    -0.76920
C802        C  0.12407386  0.69334473  0.60861571     0.86520
O803        O  0.11463659  0.66218995  0.59585245    -0.64100
Ni804      Ni  0.08273163  0.55442732  0.70511329     1.27450
Ni805      Ni  0.16005140  0.59535320  0.71903584     1.26060
H806        H  0.17452740  0.62713173  0.63822650     0.41070
O807        O  0.13777261  0.27899218  0.78324864    -0.78890
O808        O  0.15952188  0.42317381  0.67225518    -0.63580
O809        O  0.15938210  0.34764406  0.76862328    -1.10180
C810        C  0.03594538  0.37457230  0.77919214     1.08000
O811        O  0.12388154  0.45418235  0.72410491    -0.76790
O812        O  0.08587074  0.43384876  0.80718327    -0.64370
Ni813      Ni  0.17108467  0.30343859  0.73695268     1.34870
C814        C  0.10566591  0.42129104  0.84345687     0.86740
O815        O  0.21002819  0.38168392  0.70950836    -0.77320
O816        O  0.20934008  0.32383401  0.69211673    -0.87600
C817        C  0.15250195  0.45051021  0.69800607     0.86310
O818        O  0.13434276  0.30712601  0.68206679    -0.65800
O819        O  0.04093239  0.39823644  0.74329755    -0.85090
C820        C  0.13321989  0.33230748  0.64847298     0.87140
C821        C  0.22503994  0.35397438  0.69209544     1.08710
H822        H  0.09785494  0.37208577  0.70049871     0.40510
O823        O  0.10977584  0.38444892  0.72884037    -1.07750
O824        O  0.12084281  0.39100435  0.83929242    -0.64400
Ni825      Ni  0.11050816  0.35300656  0.78706145     1.26350
O826        O  0.15440642  0.35756827  0.65324825    -0.64630
O827        O  0.06080664  0.35766489  0.80252439    -0.76920
C828        C  0.12380847  0.28678310  0.82877965     0.86520
O829        O  0.11452807  0.31798089  0.84156281    -0.64100
Ni830      Ni  0.08284693  0.42564861  0.73183782     1.27450
Ni831      Ni  0.16013441  0.38458207  0.71816340     1.26060
H832        H  0.17448789  0.35280508  0.79903418     0.41070
C833        C  0.17877214  0.47603543  0.70767241    -0.11270
C834        C  0.17870671  0.50412785  0.72872545    -0.12830
C835        C  0.25981781  0.62204631  0.77009390    -0.11270
C836        C  0.28643318  0.62009945  0.79760437    -0.12830
C837        C  0.08778357  0.62590886  0.85954027    -0.11270
C838        C  0.10511928  0.64309645  0.82767802    -0.12830
C839        C  0.10831863  0.47123556  0.91705409    -0.11270
C840        C  0.11012724  0.44461694  0.88952663    -0.12830
C841        C  0.22630214  0.55210149  0.95909731    -0.11270
C842        C  0.25443066  0.55176844  0.98002642    -0.12830
C843        C  0.37132278  0.44330167  0.04713908    -0.11270
C844        C  0.37306199  0.46998584  0.01975425    -0.12830
C845        C  0.39387382  0.62481573  0.07763899    -0.11270
C846        C  0.37665903  0.64221689  0.10937302    -0.12830
C847        C  0.19512109  0.62057973  0.13980329    -0.11270
C848        C  0.22181513  0.62222793  0.16719068    -0.12830
C849        C  0.30301708  0.50339797  0.20752301    -0.11270
C850        C  0.30308995  0.47520548  0.22823179    -0.12830
C851        C  0.37638915  0.33638522  0.32777961    -0.11270
C852        C  0.39368782  0.35364298  0.35960273    -0.12830
C853        C  0.37329545  0.50844351  0.41717955    -0.11270
C854        C  0.37145291  0.53509399  0.38971715    -0.12830
C855        C  0.25985800  0.35740615  0.66744196    -0.11270
C856        C  0.28652688  0.35910209  0.64001682    -0.12830
C857        C  0.08780517  0.35444457  0.57767270    -0.11270
C858        C  0.10506151  0.33713972  0.60948281    -0.12830
C859        C  0.10824124  0.50914045  0.51986563    -0.11270
C860        C  0.11001490  0.53573729  0.54742770    -0.12830
C861        C  0.22697247  0.42792374  0.47949484    -0.11270
C862        C  0.25514448  0.42765904  0.45870963    -0.12830
C863        C  0.19510380  0.35918611  0.29746128    -0.11270
C864        C  0.22172792  0.35725225  0.26997085    -0.12830
C865        C  0.36273634  0.25691885  0.07203513    -0.11270
C866        C  0.36226119  0.22913442  0.04845455    -0.12830
C867        C  0.22601551  0.05195463  0.97765937    -0.11270
C868        C  0.25423682  0.05153433  0.95706927    -0.12830
C869        C  0.11888574  0.23041792  0.88937517    -0.11270
C870        C  0.11837485  0.25819302  0.86573997    -0.12830
C871        C  0.11843821  0.75813137  0.07166634    -0.11270
C872        C  0.11901557  0.73033657  0.04809262    -0.12830
C873        C  0.11006551  0.94465014  0.04799181    -0.11270
C874        C  0.10818132  0.97131641  0.02056405    -0.12830
C875        C  0.11883885  0.22211178  0.36624681    -0.11270
C876        C  0.11924882  0.24993549  0.38971419    -0.12830
C877        C  0.08793320  0.12598442  0.07849489    -0.11270
C878        C  0.10526632  0.14313108  0.11041198    -0.12830
C879        C  0.28648654  0.11990639  0.14029320    -0.11270
C880        C  0.25991075  0.12190364  0.16788395    -0.12830
C881        C  0.17878445  0.97596643  0.23012097    -0.11270
C882        C  0.17868638  0.00414163  0.20934734    -0.12830
C883        C  0.36308290  0.72155139  0.36550144    -0.11270
C884        C  0.36250746  0.74931280  0.38916671    -0.12830
C885        C  0.28643658  0.85891383  0.29775006    -0.11270
C886        C  0.25979764  0.85722122  0.27025627    -0.12830
C887        C  0.08779590  0.85435073  0.35982294    -0.11270
C888        C  0.10502655  0.83704457  0.32798621    -0.12830
C889        C  0.11035661  0.03572043  0.39075532    -0.11270
C890        C  0.10857647  0.00903541  0.41812696    -0.12830
C891        C  0.25505874  0.92726089  0.47928463    -0.11270
C892        C  0.22694890  0.92745417  0.45829428    -0.12830
C893        C  0.11899179  0.74971752  0.54813968    -0.11270
C894        C  0.11854631  0.72194835  0.57176030    -0.12830
C895        C  0.36309410  0.75699740  0.86545857    -0.11270
C896        C  0.36260941  0.72923510  0.88911078    -0.12830
C897        C  0.37669954  0.83639928  0.60964499    -0.11270
C898        C  0.39395282  0.85370411  0.57782316    -0.12830
C899        C  0.19529007  0.85890506  0.63988364    -0.11270
C900        C  0.22195390  0.85702385  0.66730960    -0.12830
C901        C  0.37151336  0.94332474  0.89027055    -0.11270
C902        C  0.37325303  0.96998364  0.91770535    -0.12830
C903        C  0.36214711  0.24932684  0.54840875    -0.11270
C904        C  0.36264095  0.22155421  0.57206127    -0.12830
C905        C  0.39343592  0.12483233  0.85981663    -0.11270
C906        C  0.37610073  0.14215193  0.82810946    -0.12830
C907        C  0.22118876  0.12213198  0.76998469    -0.11270
C908        C  0.19447630  0.12050544  0.79732947    -0.12830
C909        C  0.30266399  0.00311947  0.73011001    -0.11270
C910        C  0.30295306  0.97494632  0.70934400    -0.12830
C911        C  0.37295896  0.00846660  0.52030673    -0.11270
C912        C  0.37105923  0.03510541  0.54777524    -0.12830
C913        C  0.00879080  0.86777300  0.61602594    -0.11270
C914        C  0.98099638  0.86832712  0.63960180    -0.12830
C915        C  0.80259218  0.00377143  0.70884306    -0.11270
C916        C  0.80278131  0.97554174  0.72942060    -0.12830
C917        C  0.98023926  0.11192463  0.79916420    -0.11270
C918        C  0.00802802  0.11246891  0.82275144    -0.12830
C919        C  0.48109585  0.86748518  0.79838719    -0.11270
C920        C  0.50885410  0.86691655  0.82206221    -0.12830
C921        C  0.69529561  0.85868238  0.79827680    -0.11270
C922        C  0.72195421  0.85700934  0.77082059    -0.12830
C923        C  0.97283428  0.86813905  0.11624159    -0.11270
C924        C  0.00064122  0.86863350  0.13976968    -0.12830
C925        C  0.89390739  0.85456097  0.86026720    -0.11270
C926        C  0.87674689  0.83714735  0.82846106    -0.12830
C927        C  0.87082712  0.03592026  0.89092901    -0.11270
C928        C  0.87269212  0.00925680  0.91833714    -0.12830
C929        C  0.72643552  0.92710804  0.97963704    -0.11270
C930        C  0.75453320  0.92737849  0.95861002    -0.12830
C931        C  0.50822663  0.11144441  0.61588342    -0.11270
C932        C  0.48044996  0.11098167  0.63950185    -0.12830
C933        C  0.69451709  0.12009403  0.64046354    -0.11270
C934        C  0.72110327  0.12205092  0.66804663    -0.12830
C935        C  0.97303774  0.11217110  0.32292174    -0.11270
C936        C  0.00082437  0.11169789  0.29932258    -0.12830
C937        C  0.89312134  0.12573904  0.57860357    -0.11270
C938        C  0.87578132  0.14295878  0.61040662    -0.12830
C939        C  0.87122656  0.94419173  0.54796865    -0.11270
C940        C  0.87299535  0.97090591  0.52063603    -0.12830
C941        C  0.72663471  0.05148733  0.45784307    -0.11270
C942        C  0.75484985  0.05177645  0.47846962    -0.12830
C943        C  0.58779554  0.85316450  0.07832604    -0.11270
C944        C  0.60513832  0.83596071  0.11014823    -0.12830
C945        C  0.75984042  0.85707944  0.16784263    -0.11270
C946        C  0.78646794  0.85898946  0.14035543    -0.12830
C947        C  0.50058975  0.86752037  0.29831048    -0.11270
C948        C  0.47281314  0.86716724  0.32191942    -0.12830
C949        C  0.60978241  0.94349507  0.39016986    -0.11270
C950        C  0.60792215  0.97009687  0.41771550    -0.12830
C951        C  0.60485758  0.14208154  0.32825505    -0.11270
C952        C  0.58751115  0.12480075  0.35999898    -0.12830
C953        C  0.75977619  0.12163879  0.27037020    -0.11270
C954        C  0.78650443  0.11999868  0.29767536    -0.12830
C955        C  0.67849726  0.97517452  0.20861677    -0.11270
C956        C  0.67844396  0.00324470  0.22974444    -0.12830
C957        C  0.47278695  0.11124409  0.11587098    -0.11270
C958        C  0.50054257  0.11070947  0.13955670    -0.12830
C959        C  0.60828040  0.00795936  0.02085669    -0.11270
C960        C  0.61005552  0.03461060  0.04830920    -0.12830
C961        C  0.61885562  0.22928987  0.54821340    -0.11270
C962        C  0.61850704  0.25709737  0.57173377    -0.12830
C963        C  0.50071123  0.36747778  0.63912010    -0.11270
C964        C  0.47293752  0.36705781  0.61548465    -0.12830
C965        C  0.61862536  0.72112969  0.86605591    -0.11270
C966        C  0.61921357  0.74890562  0.88967576    -0.12830
C967        C  0.67863635  0.47509852  0.72923604    -0.11270
C968        C  0.67866087  0.50325486  0.70839646    -0.12830
C969        C  0.47280647  0.61123104  0.82165532    -0.11270
C970        C  0.50061368  0.61071395  0.79813289    -0.12830
C971        C  0.50866337  0.36665051  0.11544469    -0.11270
C972        C  0.48087582  0.36721168  0.13902512    -0.12830
C973        C  0.58799550  0.35313467  0.85949287    -0.11270
C974        C  0.60529172  0.33593745  0.82761498    -0.12830
C975        C  0.61014596  0.53462147  0.88992383    -0.11270
C976        C  0.60835594  0.50792804  0.91729945    -0.12830
C977        C  0.61931950  0.24880151  0.04832777    -0.11270
C978        C  0.61871976  0.22104096  0.07200140    -0.12830
C979        C  0.97284042  0.36816095  0.82146975    -0.11270
C980        C  0.00061385  0.36868986  0.79783786    -0.12830
C981        C  0.75449036  0.42775840  0.98019936    -0.11270
C982        C  0.72632407  0.42731742  0.95939975    -0.12830
C983        C  0.86259059  0.22231494  0.86597064    -0.11270
C984        C  0.86232837  0.25013205  0.88946313    -0.12830
C985        C  0.75992318  0.35716846  0.76995448    -0.11270
C986        C  0.78652129  0.35917422  0.79750221    -0.12830
C987        C  0.86298254  0.25772837  0.36553109    -0.11270
C988        C  0.86233442  0.22997910  0.38923502    -0.12830
C989        C  0.87665382  0.33728253  0.10938476    -0.11270
C990        C  0.89389901  0.35465383  0.07762306    -0.12830
C991        C  0.72180423  0.35703830  0.16741807    -0.11270
C992        C  0.69510728  0.35867846  0.14004482    -0.12830
C993        C  0.98097984  0.36836737  0.29797279    -0.11270
C994        C  0.00877042  0.36781754  0.32155018    -0.12830
C995        C  0.86315066  0.72217232  0.07232446    -0.11270
C996        C  0.86273139  0.74994023  0.04869394    -0.12830
C997        C  0.80284082  0.47583346  0.20838101    -0.11270
C998        C  0.80288585  0.50400142  0.22916946    -0.12830
C999        C  0.98091891  0.61166223  0.13941698    -0.11270
C1000       C  0.00867073  0.61220976  0.11572833    -0.12830
C1001       C  0.87329325  0.50936125  0.01985896    -0.11270
C1002       C  0.87147945  0.53594992  0.04743396    -0.12830
C1003       C  0.00061928  0.61156008  0.63945326    -0.11270
C1004       C  0.97283410  0.61201916  0.61586371    -0.12830
C1005       C  0.89372957  0.62560347  0.35991933    -0.11270
C1006       C  0.87646407  0.64288308  0.32809563    -0.12830
C1007       C  0.87313407  0.47078410  0.41743639    -0.11270
C1008       C  0.87134829  0.44413526  0.38996991    -0.12830
C1009       C  0.86239187  0.72987691  0.54870616    -0.11270
C1010       C  0.86300059  0.75765240  0.57233492    -0.12830
C1011       C  0.78644878  0.62011278  0.64022207    -0.11270
C1012       C  0.75979171  0.62180490  0.66766766    -0.12830
C1013       C  0.50872557  0.61145472  0.32181202    -0.11270
C1014       C  0.48096192  0.61096781  0.29815069    -0.12830
C1015       C  0.58773501  0.62479433  0.57800227    -0.11270
C1016       C  0.60501124  0.64207764  0.60982929    -0.12830
C1017       C  0.60830639  0.47012633  0.52000802    -0.11270
C1018       C  0.61010361  0.44348157  0.54747504    -0.12830
C1019       C  0.72681995  0.55157440  0.47969102    -0.11270
C1020       C  0.75496155  0.55176005  0.45880656    -0.12830
C1021       C  0.61856846  0.75719598  0.36618198    -0.11270
C1022       C  0.61904418  0.72941152  0.38977663    -0.12830
C1023       C  0.69511807  0.62023169  0.29785152    -0.11270
C1024       C  0.72175218  0.62214589  0.27036931    -0.12830
loop_ 
_geom_bond_atom_site_label_1 
_geom_bond_atom_site_label_2 
_geom_bond_distance 
_geom_bond_site_symmetry_2 
_ccdc_geom_bond_type 
O1           Ni7   1.907       .  S
O1           C22   1.272       .  A
O2          Ni25   1.901       .  S
O2           C11   1.276       .  A
O3           Ni7   1.871       .  S
O3          Ni25   1.872       .  S
O3          Ni19   1.930       .  S
O3           H26   0.958       .  S
C4           O21   1.272       .  A
C4           O13   1.290       .  A
C4         C1017   1.462       .  S
O5          Ni24   1.943       .  S
O5           C11   1.281       .  A
O6          Ni24   1.953       .  S
O6            C8   1.268       .  A
Ni7          O10   1.922       .  S
Ni7          O12   1.896       .  S
C8           O18   1.257       .  A
C8         C1015   1.453       .  S
O9          Ni25   1.934       .  S
O9           C15   1.280       .  A
O10          C15   1.278       .  A
C11        C1013   1.435       .  S
O12          C14   1.265       .  A
O13         Ni24   1.986       .  S
C14          O20   1.291       .  A
C14        C1023   1.454       .  S
C15        C1022   1.436       .  S
H16          O17   0.967       .  S
O17         Ni25   1.922       .  S
O17         Ni19   1.879       .  S
O17         Ni24   1.906       .  S
O18         Ni19   1.920       .  S
Ni19         O23   1.855       .  S
Ni19         O21   1.910       .  S
O20         Ni25   1.977       .  S
C22          O23   1.247       .  A
C22        C1019   1.411       .  S
O27         Ni33   1.908       .  S
O27          C48   1.272       .  A
O28         Ni51   1.901       .  S
O28          C37   1.276       .  A
O29         Ni33   1.871       .  S
O29         Ni51   1.872       .  S
O29         Ni45   1.930       .  S
O29          H52   0.958       .  S
C30          O47   1.272       .  A
C30          O39   1.290       .  A
C30        C1007   1.462       .  S
O31         Ni50   1.943       .  S
O31          C37   1.281       .  A
O32         Ni50   1.953       .  S
O32          C34   1.268       .  A
Ni33         O36   1.923       .  S
Ni33         O38   1.895       .  S
C34          O44   1.257       .  A
C34        C1005   1.452       .  S
O35         Ni51   1.934       .  S
O35          C41   1.280       .  A
O36          C41   1.278       .  A
C37        C1004   1.435       .  S
O38          C40   1.265       .  A
O39         Ni50   1.986       .  S
C40          O46   1.291       .  A
C40        C1011   1.454       .  S
C41        C1009   1.437       .  S
H42          O43   0.967       .  S
O43         Ni51   1.922       .  S
O43         Ni45   1.879       .  S
O43         Ni50   1.905       .  S
O44         Ni45   1.920       .  S
Ni45         O49   1.854       .  S
Ni45         O47   1.910       .  S
O46         Ni51   1.977       .  S
C48          O49   1.247       .  A
C48        C1020   1.411       .  S
O53         Ni59   1.908       .  S
O53          C74   1.272       .  A
O54         Ni77   1.900       .  S
O54          C63   1.276       .  A
O55         Ni59   1.871       .  S
O55         Ni77   1.872       .  S
O55         Ni71   1.930       .  S
O55          H78   0.958       .  S
C56          O73   1.272       .  A
C56          O65   1.290       .  A
C56        C1024   1.462       .  S
O57         Ni76   1.943       .  S
O57          C63   1.281       .  A
O58         Ni76   1.953       .  S
O58          C60   1.268       .  A
Ni59         O62   1.922       .  S
Ni59         O64   1.895       .  S
C60          O70   1.257       .  A
C60        C1006   1.452       .  S
O61         Ni77   1.934       .  S
O61          C67   1.280       .  A
O62          C67   1.278       .  A
C63         C995   1.434       .  S
O64          C66   1.265       .  A
O65         Ni76   1.986       .  S
C66          O72   1.290       .  A
C66        C1002   1.454       .  S
C67         C999   1.436       .  S
H68          O69   0.967       .  S
O69         Ni77   1.922       .  S
O69         Ni71   1.879       .  S
O69         Ni76   1.906       .  S
O70         Ni71   1.920       .  S
Ni71         O75   1.854       .  S
Ni71         O73   1.910       .  S
O72         Ni77   1.977       .  S
C74          O75   1.247       .  A
C74         C998   1.411       .  S
O79         Ni85   1.907       .  S
O79         C100   1.272       .  A
O80        Ni103   1.901       .  S
O80          C89   1.276       .  A
O81         Ni85   1.871       .  S
O81        Ni103   1.872       .  S
O81         Ni97   1.930       .  S
O81         H104   0.958       .  S
C82          O99   1.272       .  A
C82          O91   1.290       .  A
C82         C991   1.462       .  S
O83        Ni102   1.943       .  S
O83          C89   1.281       .  A
O84        Ni102   1.953       .  S
O84          C86   1.268       .  A
Ni85         O88   1.922       .  S
Ni85         O90   1.895       .  S
C86          O96   1.257       .  A
C86         C989   1.453       .  S
O87        Ni103   1.934       .  S
O87          C93   1.280       .  A
O88          C93   1.278       .  A
C89         C987   1.435       .  S
O90          C92   1.265       .  A
O91        Ni102   1.986       .  S
C92          O98   1.291       .  A
C92        C1008   1.454       .  S
C93         C993   1.436       .  S
H94          O95   0.967       .  S
O95        Ni103   1.922       .  S
O95         Ni97   1.879       .  S
O95        Ni102   1.905       .  S
O96         Ni97   1.920       .  S
Ni97        O101   1.855       .  S
Ni97         O99   1.910       .  S
O98        Ni103   1.978       .  S
C100        O101   1.247       .  A
C100        C997   1.411       .  S
O105       Ni111   1.906       .  S
O105        C126   1.272       .  A
O106       Ni129   1.901       .  S
O106        C115   1.276       .  A
O107       Ni111   1.870       .  S
O107       Ni129   1.872       .  S
O107       Ni123   1.930       .  S
O107        H130   0.958       .  S
C108        O125   1.272       .  A
C108        O117   1.290       .  A
C108       C1001   1.462   1_556  S
O109       Ni128   1.943       .  S
O109        C115   1.281       .  A
O110       Ni128   1.953   1_554  S
O110        C112   1.268       .  A
Ni111       O114   1.922       .  S
Ni111       O116   1.895       .  S
C112        O122   1.257       .  A
C112        C990   1.453       .  S
O113       Ni129   1.934       .  S
O113        C119   1.280       .  A
O114        C119   1.278       .  A
C115        C979   1.435       .  S
O116        C118   1.265       .  A
O117       Ni128   1.985       .  S
C118        O124   1.291       .  A
C118        C986   1.454       .  S
C119        C984   1.436       .  S
H120        O121   0.967       .  S
O121       Ni129   1.922       .  S
O121       Ni123   1.879       .  S
O121       Ni128   1.906       .  S
O122       Ni123   1.920   1_554  S
Ni123       O127   1.856   1_556  S
Ni123       O125   1.910       .  S
O124       Ni129   1.977       .  S
C126        O127   1.248   1_556  A
C126        C981   1.411       .  S
O131       Ni137   1.908       .  S
O131        C152   1.272       .  A
O132       Ni155   1.901       .  S
O132        C141   1.276       .  A
O133       Ni137   1.871       .  S
O133       Ni155   1.872   1_556  S
O133       Ni149   1.930       .  S
O133        H156   0.958       .  S
C134        O151   1.272       .  A
C134        O143   1.290       .  A
C134        C976   1.462       .  S
O135       Ni154   1.943   1_554  S
O135        C141   1.281       .  A
O136       Ni154   1.953       .  S
O136        C138   1.268       .  A
Ni137       O140   1.923       .  S
Ni137       O142   1.895   1_556  S
C138        O148   1.257       .  A
C138        C973   1.452       .  S
O139       Ni155   1.934       .  S
O139        C145   1.280       .  A
O140        C145   1.278   1_556  A
C141        C971   1.435       .  S
O142        C144   1.265       .  A
O143       Ni154   1.986       .  S
C144        O150   1.291       .  A
C144        C992   1.454       .  S
C145        C977   1.436       .  S
H146        O147   0.967       .  S
O147       Ni155   1.922       .  S
O147       Ni149   1.878   1_554  S
O147       Ni154   1.905   1_554  S
O148       Ni149   1.920       .  S
Ni149       O153   1.854       .  S
Ni149       O151   1.910       .  S
O150       Ni155   1.977       .  S
C152        O153   1.247       .  A
C152        C982   1.411       .  S
O157       Ni163   1.907       .  S
O157        C178   1.272       .  A
O158       Ni181   1.901       .  S
O158        C167   1.276       .  A
O159       Ni163   1.871       .  S
O159       Ni181   1.872       .  S
O159       Ni175   1.930       .  S
O159        H182   0.958       .  S
C160        O177   1.272       .  A
C160        O169   1.290       .  A
C160       C1012   1.462       .  S
O161       Ni180   1.943       .  S
O161        C167   1.281       .  A
O162       Ni180   1.953       .  S
O162        C164   1.268       .  A
Ni163       O166   1.922       .  S
Ni163       O168   1.895       .  S
C164        O174   1.257       .  A
C164       C1016   1.453       .  S
O165       Ni181   1.934       .  S
O165        C171   1.280       .  A
O166        C171   1.278       .  A
C167        C965   1.435       .  S
O168        C170   1.265       .  A
O169       Ni180   1.985       .  S
C170        O176   1.291       .  A
C170        C975   1.455       .  S
C171        C970   1.436       .  S
H172        O173   0.967       .  S
O173       Ni181   1.922       .  S
O173       Ni175   1.879       .  S
O173       Ni180   1.905       .  S
O174       Ni175   1.920       .  S
Ni175       O179   1.855       .  S
Ni175       O177   1.910       .  S
O176       Ni181   1.978       .  S
C178        O179   1.247       .  A
C178        C968   1.411       .  S
O183       Ni189   1.907       .  S
O183        C204   1.272       .  A
O184       Ni207   1.901       .  S
O184        C193   1.276       .  A
O185       Ni189   1.871       .  S
O185       Ni207   1.872       .  S
O185       Ni201   1.930       .  S
O185        H208   0.958       .  S
C186        O203   1.272       .  A
C186        O195   1.290       .  A
C186        C985   1.462       .  S
O187       Ni206   1.943       .  S
O187        C193   1.281       .  A
O188       Ni206   1.953       .  S
O188        C190   1.268       .  A
Ni189       O192   1.922       .  S
Ni189       O194   1.896       .  S
C190        O200   1.257       .  A
C190        C974   1.452       .  S
O191       Ni207   1.934       .  S
O191        C197   1.280       .  A
O192        C197   1.278       .  A
C193        C962   1.435       .  S
O194        C196   1.265       .  A
O195       Ni206   1.986       .  S
C196        O202   1.291       .  A
C196       C1018   1.454       .  S
C197        C963   1.436       .  S
H198        O199   0.967       .  S
O199       Ni207   1.922       .  S
O199       Ni201   1.879       .  S
O199       Ni206   1.906       .  S
O200       Ni201   1.920       .  S
Ni201       O205   1.854       .  S
Ni201       O203   1.910       .  S
O202       Ni207   1.977       .  S
C204        O205   1.247       .  A
C204        C967   1.411       .  S
O209       Ni215   1.943       .  S
O209        C230   1.281       .  A
O210       Ni233   1.855       .  S
O210        C219   1.247       .  A
O211       Ni215   1.905       .  S
O211       Ni233   1.879       .  S
O211       Ni227   1.922       .  S
O211        H234   0.967       .  S
C212        O229   1.280       .  A
C212        O221   1.278       .  A
C212        C958   1.436       .  S
O213       Ni232   1.907       .  S
O213        C219   1.272       .  A
O214       Ni232   1.896       .  S
O214        C216   1.265       .  A
Ni215       O218   1.985       .  S
Ni215       O220   1.953       .  S
C216        O226   1.291       .  A
C216        C960   1.454       .  S
O217       Ni233   1.910       .  S
O217        C223   1.272       .  A
O218        C223   1.290       .  A
C219        C956   1.411       .  S
O220        C222   1.268       .  A
O221       Ni232   1.922       .  S
C222        O228   1.257       .  A
C222        C951   1.453       .  S
C223        C953   1.462       .  S
H224        O225   0.958       .  S
O225       Ni233   1.930       .  S
O225       Ni227   1.872       .  S
O225       Ni232   1.871       .  S
O226       Ni227   1.977       .  S
Ni227       O231   1.901       .  S
Ni227       O229   1.934       .  S
O228       Ni233   1.920       .  S
C230        O231   1.276       .  A
C230        C978   1.435       .  S
O235       Ni241   1.943       .  S
O235        C256   1.281       .  A
O236       Ni259   1.855       .  S
O236        C245   1.247       .  A
O237       Ni241   1.906       .  S
O237       Ni259   1.879       .  S
O237       Ni253   1.922       .  S
O237        H260   0.967       .  S
C238        O255   1.280       .  A
C238        O247   1.278       .  A
C238        C947   1.436       .  S
O239       Ni258   1.907       .  S
O239        C245   1.272       .  A
O240       Ni258   1.896       .  S
O240        C242   1.265       .  A
Ni241       O244   1.986       .  S
Ni241       O246   1.953       .  S
C242        O252   1.291       .  A
C242        C949   1.454       .  S
O243       Ni259   1.910       .  S
O243        C249   1.272       .  A
O244        C249   1.290       .  A
C245        C955   1.411       .  S
O246        C248   1.268       .  A
O247       Ni258   1.922       .  S
C248        O254   1.258       .  A
C248        C944   1.452       .  S
C249        C945   1.462       .  S
H250        O251   0.958       .  S
O251       Ni259   1.930       .  S
O251       Ni253   1.872       .  S
O251       Ni258   1.871       .  S
O252       Ni253   1.977       .  S
Ni253       O257   1.901       .  S
Ni253       O255   1.934       .  S
O254       Ni259   1.920       .  S
C256        O257   1.276       .  A
C256       C1021   1.435       .  S
O261       Ni267   1.944       .  S
O261        C282   1.281       .  A
O262       Ni285   1.854       .  S
O262        C271   1.247       .  A
O263       Ni267   1.905       .  S
O263       Ni285   1.878       .  S
O263       Ni279   1.922       .  S
O263        H286   0.967       .  S
C264        O281   1.280       .  A
C264        O273   1.278       .  A
C264        C988   1.436       .  S
O265       Ni284   1.908       .  S
O265        C271   1.272       .  A
O266       Ni284   1.895       .  S
O266        C268   1.265       .  A
Ni267       O270   1.986       .  S
Ni267       O272   1.953       .  S
C268        O278   1.291       .  A
C268        C954   1.454       .  S
O269       Ni285   1.910       .  S
O269        C275   1.272       .  A
O270        C275   1.290       .  A
C271        C942   1.411       .  S
O272        C274   1.268       .  A
O273       Ni284   1.923       .  S
C274        O280   1.257       .  A
C274        C937   1.452       .  S
C275        C940   1.463   1_545  S
H276        O277   0.958       .  S
O277       Ni285   1.930       .  S
O277       Ni279   1.872       .  S
O277       Ni284   1.871       .  S
O278       Ni279   1.978       .  S
Ni279       O283   1.901       .  S
Ni279       O281   1.934       .  S
O280       Ni285   1.920       .  S
C282        O283   1.276       .  A
C282        C935   1.435       .  S
O287       Ni293   1.943       .  S
O287        C308   1.281       .  A
O288       Ni311   1.855       .  S
O288        C297   1.247       .  A
O289       Ni293   1.906       .  S
O289       Ni311   1.879       .  S
O289       Ni305   1.922       .  S
O289        H312   0.967       .  S
C290        O307   1.280       .  A
C290        O299   1.278       .  A
C290        C961   1.436       .  S
O291       Ni310   1.907       .  S
O291        C297   1.272       .  A
O292       Ni310   1.895       .  S
O292        C294   1.265       .  A
Ni293       O296   1.986       .  S
Ni293       O298   1.953       .  S
C294        O304   1.291       .  A
C294        C933   1.454       .  S
O295       Ni311   1.910       .  S
O295        C301   1.272       .  A
O296        C301   1.290       .  A
C297        C941   1.410       .  S
O298        C300   1.268       .  A
O299       Ni310   1.922       .  S
C300        O306   1.257       .  A
C300        C952   1.453       .  S
C301        C950   1.462   1_545  S
H302        O303   0.958       .  S
O303       Ni311   1.930       .  S
O303       Ni305   1.872       .  S
O303       Ni310   1.870       .  S
O304       Ni305   1.977       .  S
Ni305       O309   1.901       .  S
Ni305       O307   1.934       .  S
O306       Ni311   1.920       .  S
C308        O309   1.276       .  A
C308        C931   1.435       .  S
O313       Ni319   1.943   1_554  S
O313        C334   1.281       .  A
O314       Ni337   1.855       .  S
O314        C323   1.247       .  A
O315       Ni319   1.906   1_554  S
O315       Ni337   1.879   1_554  S
O315       Ni331   1.922       .  S
O315        H338   0.967       .  S
C316        O333   1.280       .  A
C316        O325   1.278   1_554  A
C316        C996   1.436       .  S
O317       Ni336   1.907       .  S
O317        C323   1.272       .  A
O318       Ni336   1.896   1_554  S
O318        C320   1.265       .  A
Ni319       O322   1.985       .  S
Ni319       O324   1.953       .  S
C320        O330   1.291       .  A
C320        C946   1.454       .  S
O321       Ni337   1.910       .  S
O321        C327   1.272       .  A
O322        C327   1.290       .  A
C323        C930   1.411       .  S
O324        C326   1.268       .  A
O325       Ni336   1.922       .  S
C326        O332   1.257       .  A
C326        C925   1.453       .  S
C327        C928   1.462   1_565  S
H328        O329   0.958       .  S
O329       Ni337   1.930       .  S
O329       Ni331   1.872   1_556  S
O329       Ni336   1.871       .  S
O330       Ni331   1.977       .  S
Ni331       O335   1.901       .  S
Ni331       O333   1.934       .  S
O332       Ni337   1.920       .  S
C334        O335   1.276       .  A
C334        C923   1.435       .  S
O339       Ni345   1.943       .  S
O339        C360   1.281       .  A
O340       Ni363   1.854   1_554  S
O340        C349   1.247   1_554  A
O341       Ni345   1.905       .  S
O341       Ni363   1.879       .  S
O341       Ni357   1.922       .  S
O341        H364   0.967       .  S
C342        O359   1.280       .  A
C342        O351   1.278       .  A
C342        C966   1.436       .  S
O343       Ni362   1.908       .  S
O343        C349   1.272       .  A
O344       Ni362   1.896       .  S
O344        C346   1.265       .  A
Ni345       O348   1.986       .  S
Ni345       O350   1.953   1_556  S
C346        O356   1.291       .  A
C346        C921   1.454       .  S
O347       Ni363   1.910       .  S
O347        C353   1.272       .  A
O348        C353   1.290       .  A
C349        C929   1.411       .  S
O350        C352   1.268       .  A
O351       Ni362   1.923       .  S
C352        O358   1.257       .  A
C352        C943   1.452       .  S
C353        C959   1.462   1_566  S
H354        O355   0.958       .  S
O355       Ni363   1.930       .  S
O355       Ni357   1.872       .  S
O355       Ni362   1.871       .  S
O356       Ni357   1.977       .  S
Ni357       O361   1.901       .  S
Ni357       O359   1.934       .  S
O358       Ni363   1.919   1_554  S
C360        O361   1.276       .  A
C360        C920   1.435       .  S
O365       Ni371   1.943       .  S
O365        C386   1.281       .  A
O366       Ni389   1.855       .  S
O366        C375   1.247       .  A
O367       Ni371   1.906       .  S
O367       Ni389   1.879       .  S
O367       Ni383   1.922       .  S
O367        H390   0.967       .  S
C368        O385   1.280       .  A
C368        O377   1.278       .  A
C368        C917   1.436       .  S
O369       Ni388   1.907       .  S
O369        C375   1.272       .  A
O370       Ni388   1.895       .  S
O370        C372   1.265       .  A
Ni371       O374   1.986       .  S
Ni371       O376   1.953       .  S
C372        O382   1.291       .  A
C372        C927   1.454       .  S
O373       Ni389   1.910       .  S
O373        C379   1.272       .  A
O374        C379   1.290       .  A
C375        C915   1.410       .  S
O376        C378   1.268       .  A
O377       Ni388   1.922       .  S
C378        O384   1.257       .  A
C378        C938   1.452       .  S
C379        C934   1.462       .  S
H380        O381   0.958       .  S
O381       Ni389   1.930       .  S
O381       Ni383   1.872       .  S
O381       Ni388   1.871       .  S
O382       Ni383   1.977       .  S
Ni383       O387   1.900       .  S
Ni383       O385   1.934       .  S
O384       Ni389   1.920       .  S
C386        O387   1.276       .  A
C386        C983   1.435       .  S
O391       Ni397   1.943       .  S
O391        C412   1.281       .  A
O392       Ni415   1.854       .  S
O392        C401   1.247       .  A
O393       Ni397   1.905       .  S
O393       Ni415   1.878       .  S
O393       Ni409   1.922       .  S
O393        H416   0.967       .  S
C394        O411   1.280       .  A
C394        O403   1.278       .  A
C394        C914   1.436       .  S
O395       Ni414   1.908       .  S
O395        C401   1.272       .  A
O396       Ni414   1.895       .  S
O396        C398   1.265       .  A
Ni397       O400   1.986       .  S
Ni397       O402   1.953       .  S
C398        O408   1.291       .  A
C398        C939   1.454       .  S
O399       Ni415   1.910       .  S
O399        C405   1.272       .  A
O400        C405   1.290       .  A
C401        C916   1.411       .  S
O402        C404   1.268       .  A
O403       Ni414   1.923       .  S
C404        O410   1.257       .  A
C404        C926   1.452       .  S
C405        C922   1.462       .  S
H406        O407   0.958       .  S
O407       Ni415   1.930       .  S
O407       Ni409   1.872       .  S
O407       Ni414   1.871       .  S
O408       Ni409   1.978       .  S
Ni409       O413   1.901       .  S
Ni409       O411   1.934       .  S
O410       Ni415   1.919       .  S
C412        O413   1.276       .  A
C412       C1010   1.435       .  S
O417       Ni423   1.907       .  S
O417        C438   1.272       .  A
O418       Ni441   1.901       .  S
O418        C427   1.276       .  A
O419       Ni423   1.870       .  S
O419       Ni441   1.872       .  S
O419       Ni435   1.931       .  S
O419        H442   0.958       .  S
C420        O437   1.272       .  A
C420        O429   1.290       .  A
C420        C907   1.462       .  S
O421       Ni440   1.943       .  S
O421        C427   1.281       .  A
O422       Ni440   1.953       .  S
O422        C424   1.268       .  A
Ni423       O426   1.922       .  S
Ni423       O428   1.895       .  S
C424        O434   1.257       .  A
C424        C906   1.453       .  S
O425       Ni441   1.934       .  S
O425        C431   1.280       .  A
O426        C431   1.278       .  A
C427        C904   1.435       .  S
O428        C430   1.265       .  A
O429       Ni440   1.986       .  S
C430        O436   1.291       .  A
C430        C912   1.454       .  S
C431        C932   1.436       .  S
H432        O433   0.967       .  S
O433       Ni441   1.922       .  S
O433       Ni435   1.879       .  S
O433       Ni440   1.906       .  S
O434       Ni435   1.920       .  S
Ni435       O439   1.855       .  S
Ni435       O437   1.910       .  S
O436       Ni441   1.978       .  S
C438        O439   1.248       .  A
C438        C909   1.410       .  S
O443       Ni449   1.908       .  S
O443        C464   1.272       .  A
O444       Ni467   1.901       .  S
O444        C453   1.276       .  A
O445       Ni449   1.871       .  S
O445       Ni467   1.872       .  S
O445       Ni461   1.930       .  S
O445        H468   0.958       .  S
C446        O463   1.272       .  A
C446        O455   1.290       .  A
C446        C900   1.462       .  S
O447       Ni466   1.943       .  S
O447        C453   1.281       .  A
O448       Ni466   1.953       .  S
O448        C450   1.268       .  A
Ni449       O452   1.923       .  S
Ni449       O454   1.895       .  S
C450        O460   1.257       .  A
C450        C897   1.452       .  S
O451       Ni467   1.934       .  S
O451        C457   1.280       .  A
O452        C457   1.278       .  A
C453        C895   1.435       .  S
O454        C456   1.265       .  A
O455       Ni466   1.986       .  S
C456        O462   1.291       .  A
C456        C901   1.454       .  S
C457        C919   1.436       .  S
H458        O459   0.967       .  S
O459       Ni467   1.922       .  S
O459       Ni461   1.879       .  S
O459       Ni466   1.905       .  S
O460       Ni461   1.920       .  S
Ni461       O465   1.854       .  S
Ni461       O463   1.910       .  S
O462       Ni467   1.977       .  S
C464        O465   1.247       .  A
C464        C910   1.411       .  S
O469       Ni475   1.907       .  S
O469        C490   1.272       .  A
O470       Ni493   1.901       .  S
O470        C479   1.276       .  A
O471       Ni475   1.871       .  S
O471       Ni493   1.872       .  S
O471       Ni487   1.930       .  S
O471        H494   0.958       .  S
C472        O489   1.272       .  A
C472        O481   1.290       .  A
C472        C890   1.462   1_565  S
O473       Ni492   1.943       .  S
O473        C479   1.281       .  A
O474       Ni492   1.953       .  S
O474        C476   1.268       .  A
Ni475       O478   1.922       .  S
Ni475       O480   1.896       .  S
C476        O486   1.257       .  A
C476        C887   1.453       .  S
O477       Ni493   1.934       .  S
O477        C483   1.280       .  A
O478        C483   1.278       .  A
C479        C913   1.435       .  S
O480        C482   1.265       .  A
O481       Ni492   1.985       .  S
C482        O488   1.291       .  A
C482        C899   1.455       .  S
C483        C893   1.436       .  S
H484        O485   0.967       .  S
O485       Ni493   1.922       .  S
O485       Ni487   1.879       .  S
O485       Ni492   1.906       .  S
O486       Ni487   1.920       .  S
Ni487       O491   1.855       .  S
Ni487       O489   1.910       .  S
O488       Ni493   1.977       .  S
C490        O491   1.247       .  A
C490        C892   1.411       .  S
O495       Ni501   1.908       .  S
O495        C516   1.272       .  A
O496       Ni519   1.900       .  S
O496        C505   1.276       .  A
O497       Ni501   1.871       .  S
O497       Ni519   1.872       .  S
O497       Ni513   1.930       .  S
O497        H520   0.958       .  S
C498        O515   1.272       .  A
C498        O507   1.290       .  A
C498        C911   1.462   1_565  S
O499       Ni518   1.943       .  S
O499        C505   1.281       .  A
O500       Ni518   1.953       .  S
O500        C502   1.268       .  A
Ni501       O504   1.923       .  S
Ni501       O506   1.896       .  S
C502        O512   1.257       .  A
C502        C898   1.452       .  S
O503       Ni519   1.934       .  S
O503        C509   1.280       .  A
O504        C509   1.278       .  A
C505        C948   1.435       .  S
O506        C508   1.265       .  A
O507       Ni518   1.986       .  S
C508        O514   1.290       .  A
C508        C885   1.454       .  S
C509        C884   1.436       .  S
H510        O511   0.967       .  S
O511       Ni519   1.922       .  S
O511       Ni513   1.879       .  S
O511       Ni518   1.906       .  S
O512       Ni513   1.920       .  S
Ni513       O517   1.854       .  S
Ni513       O515   1.910       .  S
O514       Ni519   1.977       .  S
C516        O517   1.247       .  A
C516        C891   1.411       .  S
O521       Ni527   1.908       .  S
O521        C542   1.272       .  A
O522       Ni545   1.901       .  S
O522        C531   1.276       .  A
O523       Ni527   1.871       .  S
O523       Ni545   1.872       .  S
O523       Ni539   1.930       .  S
O523        H546   0.958       .  S
C524        O541   1.272       .  A
C524        O533   1.290       .  A
C524        C880   1.462       .  S
O525       Ni544   1.943       .  S
O525        C531   1.281       .  A
O526       Ni544   1.953       .  S
O526        C528   1.268       .  A
Ni527       O530   1.922       .  S
Ni527       O532   1.895       .  S
C528        O538   1.257       .  A
C528        C878   1.452       .  S
O529       Ni545   1.934       .  S
O529        C535   1.280       .  A
O530        C535   1.278       .  A
C531        C875   1.434       .  S
O532        C534   1.265       .  A
O533       Ni544   1.986       .  S
C534        O540   1.290       .  A
C534        C889   1.454       .  S
C535        C936   1.436       .  S
H536        O537   0.967       .  S
O537       Ni545   1.922       .  S
O537       Ni539   1.879       .  S
O537       Ni544   1.905       .  S
O538       Ni539   1.920       .  S
Ni539       O543   1.854       .  S
Ni539       O541   1.910       .  S
O540       Ni545   1.977       .  S
C542        O543   1.247       .  A
C542        C882   1.411       .  S
O547       Ni553   1.907       .  S
O547        C568   1.272       .  A
O548       Ni571   1.902       .  S
O548        C557   1.276       .  A
O549       Ni553   1.870       .  S
O549       Ni571   1.872       .  S
O549       Ni565   1.930       .  S
O549        H572   0.958       .  S
C550        O567   1.272       .  A
C550        O559   1.290       .  A
C550        C886   1.462       .  S
O551       Ni570   1.943       .  S
O551        C557   1.281       .  A
O552       Ni570   1.953       .  S
O552        C554   1.268       .  A
Ni553       O556   1.922       .  S
Ni553       O558   1.895       .  S
C554        O564   1.257       .  A
C554        C888   1.453       .  S
O555       Ni571   1.934       .  S
O555        C561   1.280       .  A
O556        C561   1.278       .  A
C557        C871   1.435       .  S
O558        C560   1.265       .  A
O559       Ni570   1.986       .  S
C560        O566   1.291       .  A
C560        C873   1.455       .  S
C561        C924   1.436       .  S
H562        O563   0.967       .  S
O563       Ni571   1.922       .  S
O563       Ni565   1.879       .  S
O563       Ni570   1.906       .  S
O564       Ni565   1.920       .  S
Ni565       O569   1.855       .  S
Ni565       O567   1.910       .  S
O566       Ni571   1.978       .  S
C568        O569   1.247       .  A
C568        C881   1.411       .  S
O573       Ni579   1.909       .  S
O573        C594   1.272       .  A
O574       Ni597   1.901       .  S
O574        C583   1.276       .  A
O575       Ni579   1.871       .  S
O575       Ni597   1.871       .  S
O575       Ni591   1.929       .  S
O575        H598   0.958       .  S
C576        O593   1.272       .  A
C576        O585   1.290       .  A
C576        C874   1.463   1_546  S
O577       Ni596   1.944       .  S
O577        C583   1.281       .  A
O578       Ni596   1.953   1_554  S
O578        C580   1.268       .  A
Ni579       O582   1.923       .  S
Ni579       O584   1.895       .  S
C580        O590   1.257       .  A
C580        C877   1.452       .  S
O581       Ni597   1.935       .  S
O581        C587   1.280       .  A
O582        C587   1.278       .  A
C583        C918   1.435       .  S
O584        C586   1.265       .  A
O585       Ni596   1.986       .  S
C586        O592   1.291       .  A
C586        C908   1.454       .  S
C587        C869   1.436       .  S
H588        O589   0.967       .  S
O589       Ni597   1.922       .  S
O589       Ni591   1.878       .  S
O589       Ni596   1.905       .  S
O590       Ni591   1.919   1_554  S
Ni591       O595   1.853   1_556  S
Ni591       O593   1.910       .  S
O592       Ni597   1.978       .  S
C594        O595   1.247   1_556  A
C594        C867   1.411       .  S
O599       Ni605   1.907       .  S
O599        C620   1.272       .  A
O600       Ni623   1.901       .  S
O600        C609   1.276       .  A
O601       Ni605   1.870       .  S
O601       Ni623   1.873   1_556  S
O601       Ni617   1.930       .  S
O601        H624   0.958       .  S
C602        O619   1.272       .  A
C602        O611   1.290       .  A
C602        C902   1.462   1_545  S
O603       Ni622   1.943   1_554  S
O603        C609   1.281       .  A
O604       Ni622   1.954       .  S
O604        C606   1.268       .  A
Ni605       O608   1.922       .  S
Ni605       O610   1.895   1_556  S
C606        O616   1.257       .  A
C606        C905   1.453       .  S
O607       Ni623   1.934       .  S
O607        C613   1.280       .  A
O608        C613   1.278   1_556  A
C609        C957   1.435       .  S
O610        C612   1.265       .  A
O611       Ni622   1.986       .  S
C612        O618   1.291       .  A
C612        C879   1.454       .  S
C613        C866   1.436       .  S
H614        O615   0.967       .  S
O615       Ni623   1.922       .  S
O615       Ni617   1.879   1_554  S
O615       Ni622   1.906   1_554  S
O616       Ni617   1.920       .  S
Ni617       O621   1.855       .  S
Ni617       O619   1.910       .  S
O618       Ni623   1.977       .  S
C620        O621   1.247       .  A
C620        C868   1.410       .  S
O625       Ni631   1.943       .  S
O625        C646   1.281       .  A
O626       Ni649   1.855       .  S
O626        C635   1.248       .  A
O627       Ni631   1.906       .  S
O627       Ni649   1.879       .  S
O627       Ni643   1.922       .  S
O627        H650   0.967       .  S
C628        O645   1.280       .  A
C628        O637   1.278       .  A
C628        C876   1.436       .  S
O629       Ni648   1.907       .  S
O629        C635   1.272       .  A
O630       Ni648   1.895       .  S
O630        C632   1.265       .  A
Ni631       O634   1.985       .  S
Ni631       O636   1.953       .  S
C632        O642   1.291       .  A
C632        C863   1.454       .  S
O633       Ni649   1.910       .  S
O633        C639   1.272       .  A
O634        C639   1.290       .  A
C635        C861   1.411       .  S
O636        C638   1.268       .  A
O637       Ni648   1.922       .  S
C638        O644   1.258       .  A
C638        C857   1.453       .  S
C639        C859   1.462       .  S
H640        O641   0.958       .  S
O641       Ni649   1.930       .  S
O641       Ni643   1.872       .  S
O641       Ni648   1.870       .  S
O642       Ni643   1.977       .  S
Ni643       O647   1.901       .  S
Ni643       O645   1.934       .  S
O644       Ni649   1.920       .  S
C646        O647   1.276       .  A
C646        C994   1.435       .  S
O651       Ni657   1.943       .  S
O651        C672   1.281       .  A
O652       Ni675   1.854       .  S
O652        C661   1.247       .  A
O653       Ni657   1.905       .  S
O653       Ni675   1.879       .  S
O653       Ni669   1.922       .  S
O653        H676   0.967       .  S
C654        O671   1.280       .  A
C654        O663   1.278       .  A
C654        C903   1.437       .  S
O655       Ni674   1.908       .  S
O655        C661   1.272       .  A
O656       Ni674   1.895       .  S
O656        C658   1.265       .  A
Ni657       O660   1.986       .  S
Ni657       O662   1.953       .  S
C658        O668   1.291       .  A
C658        C856   1.454       .  S
O659       Ni675   1.910       .  S
O659        C665   1.272       .  A
O660        C665   1.290       .  A
C661        C862   1.411       .  S
O662        C664   1.268       .  A
O663       Ni674   1.923       .  S
C664        O670   1.257       .  A
C664        C852   1.452       .  S
C665        C853   1.462       .  S
H666        O667   0.958       .  S
O667       Ni675   1.930       .  S
O667       Ni669   1.872       .  S
O667       Ni674   1.871       .  S
O668       Ni669   1.977       .  S
Ni669       O673   1.901       .  S
Ni669       O671   1.934       .  S
O670       Ni675   1.920       .  S
C672        O673   1.276       .  A
C672        C964   1.435       .  S
O677       Ni683   1.943       .  S
O677        C698   1.281       .  A
O678       Ni701   1.855       .  S
O678        C687   1.247       .  A
O679       Ni683   1.906       .  S
O679       Ni701   1.879       .  S
O679       Ni695   1.922       .  S
O679        H702   0.967       .  S
C680        O697   1.280       .  A
C680        O689   1.278       .  A
C680       C1014   1.436       .  S
O681       Ni700   1.907       .  S
O681        C687   1.272       .  A
O682       Ni700   1.895       .  S
O682        C684   1.265       .  A
Ni683       O686   1.986       .  S
Ni683       O688   1.953       .  S
C684        O694   1.291       .  A
C684        C854   1.454       .  S
O685       Ni701   1.910       .  S
O685        C691   1.272       .  A
O686        C691   1.290       .  A
C687        C849   1.410       .  S
O688        C690   1.268       .  A
O689       Ni700   1.922       .  S
C690        O696   1.257       .  A
C690        C846   1.453       .  S
C691        C848   1.462       .  S
H692        O693   0.958       .  S
O693       Ni701   1.930       .  S
O693       Ni695   1.872       .  S
O693       Ni700   1.871       .  S
O694       Ni695   1.978       .  S
Ni695       O699   1.901       .  S
Ni695       O697   1.934       .  S
O696       Ni701   1.920       .  S
C698        O699   1.276       .  A
C698        C883   1.435       .  S
O703       Ni709   1.943       .  S
O703        C724   1.281       .  A
O704       Ni727   1.854       .  S
O704        C713   1.247       .  A
O705       Ni709   1.905       .  S
O705       Ni727   1.879       .  S
O705       Ni721   1.922       .  S
O705        H728   0.967       .  S
C706        O723   1.280       .  A
C706        O715   1.278       .  A
C706        C972   1.436       .  S
O707       Ni726   1.908       .  S
O707        C713   1.272       .  A
O708       Ni726   1.895       .  S
O708        C710   1.265       .  A
Ni709       O712   1.986       .  S
Ni709       O714   1.953       .  S
C710        O720   1.291       .  A
C710        C843   1.454       .  S
O711       Ni727   1.910       .  S
O711        C717   1.272       .  A
O712        C717   1.290       .  A
C713        C850   1.411       .  S
O714        C716   1.268       .  A
O715       Ni726   1.922       .  S
C716        O722   1.257       .  A
C716        C851   1.452       .  S
C717        C864   1.462       .  S
H718        O719   0.958       .  S
O719       Ni727   1.930       .  S
O719       Ni721   1.872       .  S
O719       Ni726   1.871       .  S
O720       Ni721   1.977       .  S
Ni721       O725   1.901       .  S
Ni721       O723   1.934       .  S
O722       Ni727   1.920       .  S
C724        O725   1.276       .  A
C724        C865   1.435       .  S
O729       Ni735   1.943   1_554  S
O729        C750   1.281       .  A
O730       Ni753   1.854       .  S
O730        C739   1.247       .  A
O731       Ni735   1.905   1_554  S
O731       Ni753   1.878   1_554  S
O731       Ni747   1.922       .  S
O731        H754   0.967       .  S
C732        O749   1.280       .  A
C732        O741   1.278   1_554  A
C732        C872   1.437       .  S
O733       Ni752   1.908       .  S
O733        C739   1.272       .  A
O734       Ni752   1.896   1_554  S
O734        C736   1.265       .  A
Ni735       O738   1.986       .  S
Ni735       O740   1.953       .  S
C736        O746   1.291       .  A
C736        C847   1.454       .  S
O737       Ni753   1.910       .  S
O737        C743   1.272       .  A
O738        C743   1.290       .  A
C739        C841   1.411       .  S
O740        C742   1.268       .  A
O741       Ni752   1.923       .  S
C742        O748   1.257       .  A
C742        C837   1.452       .  S
C743        C839   1.462       .  S
H744        O745   0.958       .  S
O745       Ni753   1.930       .  S
O745       Ni747   1.872   1_556  S
O745       Ni752   1.871       .  S
O746       Ni747   1.977       .  S
Ni747       O751   1.901       .  S
Ni747       O749   1.935       .  S
O748       Ni753   1.919       .  S
C750        O751   1.276       .  A
C750       C1000   1.435       .  S
O755       Ni761   1.943       .  S
O755        C776   1.281       .  A
O756       Ni779   1.855   1_554  S
O756        C765   1.248   1_554  A
O757       Ni761   1.906       .  S
O757       Ni779   1.879       .  S
O757       Ni773   1.922       .  S
O757        H780   0.967       .  S
C758        O775   1.280       .  A
C758        O767   1.278       .  A
C758        C896   1.436       .  S
O759       Ni778   1.907       .  S
O759        C765   1.272       .  A
O760       Ni778   1.896       .  S
O760        C762   1.265       .  A
Ni761       O764   1.985       .  S
Ni761       O766   1.953   1_556  S
C762        O772   1.291       .  A
C762        C836   1.454       .  S
O763       Ni779   1.910       .  S
O763        C769   1.272       .  A
O764        C769   1.290       .  A
C765        C842   1.411       .  S
O766        C768   1.268       .  A
O767       Ni778   1.922       .  S
C768        O774   1.257       .  A
C768        C845   1.453       .  S
C769        C844   1.462   1_556  S
H770        O771   0.958       .  S
O771       Ni779   1.930       .  S
O771       Ni773   1.872       .  S
O771       Ni778   1.871       .  S
O772       Ni773   1.977       .  S
Ni773       O777   1.901       .  S
Ni773       O775   1.934       .  S
O774       Ni779   1.920   1_554  S
C776        O777   1.276       .  A
C776        C969   1.435       .  S
O781       Ni787   1.943       .  S
O781        C802   1.281       .  A
O782       Ni805   1.854       .  S
O782        C791   1.247       .  A
O783       Ni787   1.906       .  S
O783       Ni805   1.879       .  S
O783       Ni799   1.922       .  S
O783        H806   0.967       .  S
C784        O801   1.280       .  A
C784        O793   1.278       .  A
C784       C1003   1.436       .  S
O785       Ni804   1.907       .  S
O785        C791   1.272       .  A
O786       Ni804   1.896       .  S
O786        C788   1.265       .  A
Ni787       O790   1.986       .  S
Ni787       O792   1.952       .  S
C788        O798   1.290       .  A
C788        C860   1.454       .  S
O789       Ni805   1.909       .  S
O789        C795   1.272       .  A
O790        C795   1.290       .  A
C791        C834   1.411       .  S
O792        C794   1.268       .  A
O793       Ni804   1.922       .  S
C794        O800   1.258       .  A
C794        C838   1.452       .  S
C795        C835   1.462       .  S
H796        O797   0.958       .  S
O797       Ni805   1.930       .  S
O797       Ni799   1.872       .  S
O797       Ni804   1.871       .  S
O798       Ni799   1.977       .  S
Ni799       O803   1.900       .  S
Ni799       O801   1.934       .  S
O800       Ni805   1.920       .  S
C802        O803   1.276       .  A
C802        C894   1.434       .  S
O807       Ni813   1.943       .  S
O807        C828   1.281       .  A
O808       Ni831   1.855       .  S
O808        C817   1.247       .  A
O809       Ni813   1.906       .  S
O809       Ni831   1.879       .  S
O809       Ni825   1.922       .  S
O809        H832   0.967       .  S
C810        O827   1.280       .  A
C810        O819   1.278       .  A
C810        C980   1.436       .  S
O811       Ni830   1.907       .  S
O811        C817   1.272       .  A
O812       Ni830   1.896       .  S
O812        C814   1.265       .  A
Ni813       O816   1.986       .  S
Ni813       O818   1.953       .  S
C814        O824   1.291       .  A
C814        C840   1.455       .  S
O815       Ni831   1.910       .  S
O815        C821   1.272       .  A
O816        C821   1.290       .  A
C817        C833   1.411       .  S
O818        C820   1.268       .  A
O819       Ni830   1.922       .  S
C820        O826   1.257       .  A
C820        C858   1.452       .  S
C821        C855   1.462       .  S
H822        O823   0.958       .  S
O823       Ni831   1.930       .  S
O823       Ni825   1.872       .  S
O823       Ni830   1.871       .  S
O824       Ni825   1.977       .  S
Ni825       O829   1.901       .  S
Ni825       O827   1.934       .  S
O826       Ni831   1.920       .  S
C828        O829   1.276       .  A
C828        C870   1.435       .  S
C833        C834   1.187       .  T
C835        C836   1.221       .  T
C837        C838   1.217       .  T
C839        C840   1.221       .  T
C841        C842   1.187       .  T
C843        C844   1.221       .  T
C845        C846   1.218       .  T
C847        C848   1.221       .  T
C849        C850   1.187       .  T
C851        C852   1.217       .  T
C853        C854   1.221       .  T
C855        C856   1.221       .  T
C857        C858   1.217       .  T
C859        C860   1.221       .  T
C861        C862   1.187       .  T
C863        C864   1.221       .  T
C865        C866   1.206       .  T
C867        C868   1.187       .  T
C869        C870   1.206       .  T
C871        C872   1.206       .  T
C873        C874   1.221       .  T
C875        C876   1.206       .  T
C877        C878   1.217       .  T
C879        C880   1.221       .  T
C881        C882   1.187   1_565  T
C883        C884   1.206       .  T
C885        C886   1.221       .  T
C887        C888   1.218       .  T
C889        C890   1.221       .  T
C891        C892   1.187       .  T
C893        C894   1.206       .  T
C895        C896   1.206       .  T
C897        C898   1.217       .  T
C899        C900   1.221       .  T
C901        C902   1.221       .  T
C903        C904   1.207       .  T
C905        C906   1.218       .  T
C907        C908   1.221       .  T
C909        C910   1.187   1_545  T
C911        C912   1.221       .  T
C913        C914   1.206   1_455  T
C915        C916   1.187   1_545  T
C917        C918   1.206   1_655  T
C919        C920   1.206       .  T
C921        C922   1.221       .  T
C923        C924   1.206   1_655  T
C925        C926   1.217       .  T
C927        C928   1.221       .  T
C929        C930   1.187       .  T
C931        C932   1.206       .  T
C933        C934   1.221       .  T
C935        C936   1.206   1_655  T
C937        C938   1.217       .  T
C939        C940   1.221       .  T
C941        C942   1.187       .  T
C943        C944   1.217       .  T
C945        C946   1.221       .  T
C947        C948   1.206       .  T
C949        C950   1.221       .  T
C951        C952   1.218       .  T
C953        C954   1.221       .  T
C955        C956   1.188   1_565  T
C957        C958   1.206       .  T
C959        C960   1.221       .  T
C961        C962   1.206       .  T
C963        C964   1.206       .  T
C965        C966   1.206       .  T
C967        C968   1.187       .  T
C969        C970   1.206       .  T
C971        C972   1.206       .  T
C973        C974   1.217       .  T
C975        C976   1.221       .  T
C977        C978   1.206       .  T
C979        C980   1.206   1_655  T
C981        C982   1.187       .  T
C983        C984   1.206       .  T
C985        C986   1.221       .  T
C987        C988   1.206       .  T
C989        C990   1.218       .  T
C991        C992   1.221       .  T
C993        C994   1.206   1_655  T
C995        C996   1.206       .  T
C997        C998   1.187       .  T
C999       C1000   1.206   1_655  T
C1001      C1002   1.221       .  T
C1003      C1004   1.206   1_455  T
C1005      C1006   1.217       .  T
C1007      C1008   1.221       .  T
C1009      C1010   1.207       .  T
C1011      C1012   1.221       .  T
C1013      C1014   1.206       .  T
C1015      C1016   1.218       .  T
C1017      C1018   1.221       .  T
C1019      C1020   1.187       .  T
C1021      C1022   1.206       .  T
C1023      C1024   1.221       .  T
