geometry optimzed in LAMMPS
_audit_creation_date              2020-12-01 
_audit_creation_method            'lammps2cif' 
_symmetry_space_group_name_H-M    'P1' 
_symmetry_Int_Tables_number       1 
_symmetry_cell_setting            triclinic 
loop_ 
_symmetry_equiv_pos_as_xyz 
  x,y,z 
_cell_length_a                    39.06434092 
_cell_length_b                    38.52870543659864 
_cell_length_c                    54.54980235498376 
_cell_angle_alpha                 90.1987405719232 
_cell_angle_beta                  90.0178853916859 
_cell_angle_gamma                 90.61614695700905 
loop_ 
_atom_site_label 
_atom_site_type_symbol 
_atom_site_fract_x 
_atom_site_fract_y 
_atom_site_fract_z 
_atom_site_charge 
Zn1        Zn  0.17913954  0.30613483  0.36370140     1.49700
Zn2        Zn  0.16436312  0.37551038  0.39504478     1.49400
Zn3        Zn  0.23787887  0.33596997  0.39952148     1.49100
Zn4        Zn  0.21866488  0.37338920  0.35139869     1.49500
O5          O  0.19950013  0.34777566  0.37821541    -1.82100
O6          O  0.12912323  0.30228594  0.37172194    -0.72700
O7          O  0.18161409  0.38617229  0.43054163    -0.72600
O8          O  0.24718492  0.28443400  0.39739432    -0.72100
O9          O  0.11961219  0.34668978  0.39707653    -0.72800
O10         O  0.20381074  0.26358793  0.37524170    -0.72400
O11         O  0.22659543  0.35098593  0.43407708    -0.72900
O12         O  0.26451679  0.39192405  0.35856255    -0.72300
O13         O  0.15304703  0.41943665  0.37401273    -0.73100
O14         O  0.28248075  0.36089018  0.38984268    -0.72500
O15         O  0.18956409  0.41265138  0.34304878    -0.72900
O16         O  0.22447914  0.34448012  0.32142939    -0.72800
O17         O  0.18571689  0.30324131  0.32720554    -0.72600
C18         C  0.10939285  0.31931613  0.38579193     0.79200
C19         C  0.20542224  0.37235313  0.44336138     0.79600
C20         C  0.23151301  0.25910795  0.38708180     0.78600
C21         C  0.28823373  0.38311313  0.37324785     0.79000
C22         C  0.16530794  0.42884741  0.35323049     0.80100
C23         C  0.20815112  0.31791762  0.31380980     0.79200
Zn24       Zn  0.28315794  0.12243928  0.13643662     1.49700
Zn25       Zn  0.33514217  0.11745280  0.09012307     1.49400
Zn26       Zn  0.25489808  0.14281431  0.08690614     1.49100
Zn27       Zn  0.31085844  0.19019858  0.11152954     1.49500
O28         O  0.29705691  0.14240011  0.10581726    -1.82100
O29         O  0.31539547  0.08710556  0.14589301    -0.72700
O30         O  0.31951109  0.10789263  0.05371149    -0.72600
O31         O  0.21826889  0.10734477  0.09806247    -0.72100
O32         O  0.34658901  0.07444350  0.11273985    -0.72800
O33         O  0.23839705  0.09763535  0.13510405    -0.72400
O34         O  0.26802614  0.13303241  0.05231572    -0.72900
O35         O  0.28122576  0.22309361  0.09327382    -0.72300
O36         O  0.37908249  0.14934530  0.08847627    -0.73100
O37         O  0.23419749  0.19075040  0.08901057    -0.72500
O38         O  0.35988604  0.19922470  0.10310452    -0.72900
O39         O  0.30284567  0.20413770  0.14654180    -0.72800
O40         O  0.27928916  0.15724387  0.16298244    -0.72600
C41         C  0.33731269  0.06861389  0.13502216     0.79200
C42         C  0.29319086  0.11846648  0.04174955     0.79600
C43         C  0.21539374  0.09300029  0.11901149     0.78600
C44         C  0.24910342  0.22033173  0.08991539     0.79000
C45         C  0.38417142  0.18122607  0.09444829     0.80100
C46         C  0.28817454  0.18894650  0.16439130     0.79200
Zn47       Zn  0.35376771  0.95615007  0.34640481     1.49700
Zn48       Zn  0.41760405  0.99492147  0.36954122     1.49400
Zn49       Zn  0.40518762  0.91535193  0.38271210     1.49100
Zn50       Zn  0.43196846  0.93630935  0.33086923     1.49500
O51         O  0.40160749  0.95031893  0.35722232    -1.82100
O52         O  0.33673491  0.00507864  0.35291745    -0.72700
O53         O  0.43161331  0.99007403  0.40413725    -0.72600
O54         O  0.35785516  0.90530869  0.39502903    -0.72100
O55         O  0.38139960  0.03114272  0.37024774    -0.72800
O56         O  0.32080298  0.92792764  0.36866990    -0.72400
O57         O  0.42980911  0.93397275  0.41269862    -0.72900
O58         O  0.44668087  0.88560086  0.33356981    -0.72300
O59         O  0.45991794  0.01208785  0.35277881    -0.73100
O60         O  0.42929467  0.87169608  0.37094804    -0.72500
O61         O  0.47573890  0.96541617  0.33199230    -0.72900
O62         O  0.40721149  0.94519958  0.29918095    -0.72800
O63         O  0.35198516  0.95087169  0.30882766    -0.72600
C64         C  0.35031001  0.03134832  0.36340612     0.79200
C65         C  0.43611546  0.96524843  0.41896629     0.79600
C66         C  0.32722412  0.91209404  0.38875224     0.78600
C67         C  0.44484380  0.86383744  0.35114508     0.79000
C68         C  0.48240738  0.99540714  0.34085555     0.80100
C69         C  0.37616522  0.95020006  0.29289782     0.79200
Zn70       Zn  0.55754345  0.06225228  0.66462727     1.49700
Zn71       Zn  0.56723980  0.00127034  0.62904008     1.49400
Zn72       Zn  0.58291957  0.07863528  0.61185763     1.49100
Zn73       Zn  0.63425855  0.03853555  0.64872931     1.49500
O74         O  0.58663701  0.04581302  0.63847970    -1.82100
O75         O  0.51182400  0.03687314  0.66284091    -0.72700
O76         O  0.54376595  0.00491881  0.59692380    -0.72600
O77         O  0.56174935  0.12370965  0.62297927    -0.72100
O78         O  0.52962917  0.98508011  0.65114579    -0.72800
O79         O  0.54664829  0.11334372  0.66143066    -0.72400
O80         O  0.55316185  0.05891634  0.58457337    -0.72900
O81         O  0.66658474  0.06941490  0.62746392    -0.72300
O82         O  0.60278559  0.96500252  0.62513859    -0.73100
O83         O  0.63013972  0.08855427  0.59910658    -0.72500
O84         O  0.65019087  0.98937695  0.63979331    -0.72900
O85         O  0.63569490  0.04183872  0.68679769    -0.72800
O86         O  0.58120806  0.05178403  0.69659929    -0.72600
C87         C  0.50582652  0.00493621  0.65830093     0.79200
C88         C  0.53956488  0.02899349  0.58143902     0.79600
C89         C  0.54841265  0.13369088  0.64308089     0.78600
C90         C  0.66058865  0.08456354  0.60698650     0.79000
C91         C  0.63461867  0.96372478  0.62978858     0.80100
C92         C  0.61177675  0.04433461  0.70287964     0.79200
Zn93       Zn  0.92754233  0.99275801  0.13328253     1.49700
Zn94       Zn  0.93415807  0.92732799  0.16559759     1.49400
Zn95       Zn  0.85971979  0.95260488  0.14782894     1.49100
Zn96       Zn  0.91209900  0.91708860  0.11050702     1.49500
O97         O  0.90772296  0.94679834  0.13912100    -1.82100
O98         O  0.96679581  0.00484652  0.15534670    -0.72700
O99         O  0.90788210  0.93632351  0.19765362    -0.72600
O100        O  0.84466485  0.00112531  0.13961779    -0.72100
O101        O  0.98109155  0.95129344  0.16530321    -0.72800
O102        O  0.89296837  0.03061161  0.13332283    -0.72400
O103        O  0.85478136  0.94831072  0.18533116    -0.72900
O104        O  0.86492357  0.90901543  0.09600733    -0.72300
O105        O  0.94479179  0.87626301  0.15916509    -0.73100
O106        O  0.82810069  0.92411380  0.12527110    -0.72500
O107        O  0.93458583  0.87131088  0.11927740    -0.72900
O108        O  0.94124374  0.94081600  0.08466910    -0.72800
O109        O  0.94884126  0.99349385  0.10024841    -0.72600
C110        C  0.98930007  0.98290909  0.16138806     0.79200
C111        C  0.87686237  0.94450226  0.20251578     0.79600
C112        C  0.86054778  0.02922226  0.13474132     0.78600
C113        C  0.83427524  0.91249001  0.10372250     0.79000
C114        C  0.94602922  0.85870660  0.13925127     0.80100
C115        C  0.95327240  0.97161753  0.08311151     0.79200
Zn116      Zn  0.05010089  0.06766207  0.87147103     1.49700
Zn117      Zn  0.09168934  0.01015811  0.84204498     1.49400
Zn118      Zn  0.12082018  0.09083802  0.84449411     1.49100
Zn119      Zn  0.12018308  0.03925585  0.89100581     1.49500
O120        O  0.09592413  0.05270357  0.86165846    -1.82100
O121        O  0.01389656  0.03607696  0.85781600    -0.72700
O122        O  0.10516667  0.02134276  0.80751762    -0.72600
O123        O  0.08860525  0.13395812  0.84170489    -0.72100
O124        O  0.04271995  0.99199262  0.84208252    -0.72800
O125        O  0.04018834  0.11567537  0.85925295    -0.72400
O126        O  0.13065437  0.07363193  0.80859019    -0.72900
O127        O  0.15822658  0.07098748  0.89779049    -0.72300
O128        O  0.12217828  0.97097940  0.85435242    -0.73100
O129        O  0.16527835  0.10455107  0.86493828    -0.72500
O130        O  0.14142207  0.99276070  0.88919195    -0.72900
O131        O  0.09023038  0.03786296  0.92008414    -0.72800
O132        O  0.04254600  0.06344441  0.90828151    -0.72600
C133        C  0.01457857  0.00588131  0.84841937     0.79200
C134        C  0.12082693  0.04625763  0.79689426     0.79600
C135        C  0.05731126  0.13886726  0.84787670     0.78600
C136        C  0.17472013  0.09419506  0.88626840     0.79000
C137        C  0.14009218  0.96812840  0.87377248     0.80100
C138        C  0.06033443  0.04853914  0.92469177     0.79200
Zn139      Zn  0.83084474  0.15216792  0.36230316     1.49700
Zn140      Zn  0.81061056  0.17993543  0.41425730     1.49400
Zn141      Zn  0.75291069  0.16670688  0.37771753     1.49100
Zn142      Zn  0.78664229  0.10061943  0.39787946     1.49500
O143        O  0.79637476  0.14861676  0.38806589    -1.82100
O144        O  0.87420164  0.17648709  0.37423281    -0.72700
O145        O  0.78428574  0.22531969  0.41135601    -0.72600
O146        O  0.76001491  0.18964913  0.34647707    -0.72100
O147        O  0.86098920  0.19427358  0.41174498    -0.72800
O148        O  0.81303017  0.18068282  0.33379199    -0.72400
O149        O  0.73443668  0.20423214  0.39894056    -0.72900
O150        O  0.73830466  0.08380407  0.38730243    -0.72300
O151        O  0.79910921  0.15564531  0.44616273    -0.73100
O152        O  0.71670974  0.13137876  0.37139694    -0.72500
O153        O  0.78751310  0.10047048  0.43592574    -0.72900
O154        O  0.81773013  0.06763334  0.37769976    -0.72800
O155        O  0.84132535  0.10388826  0.35044147    -0.72600
C156        C  0.88218890  0.19244068  0.39398141     0.79200
C157        C  0.75292148  0.22971015  0.40589441     0.79600
C158        C  0.78363793  0.19412299  0.33090875     0.78600
C159        C  0.71422420  0.09926444  0.37610665     0.79000
C160        C  0.79036892  0.12468923  0.45212567     0.80100
C161        C  0.83493737  0.07317032  0.35800258     0.79200
Zn162      Zn  0.66641047  0.36554070  0.09537316     1.49700
Zn163      Zn  0.68271073  0.29721759  0.12660809     1.49400
Zn164      Zn  0.74328372  0.33057311  0.09534530     1.49100
Zn165      Zn  0.71815863  0.36622642  0.14234021     1.49500
O166        O  0.70206138  0.34045383  0.11421458    -1.82100
O167        O  0.62226788  0.33398396  0.09162922    -0.72700
O168        O  0.71125518  0.25730264  0.11706036    -0.72600
O169        O  0.73448440  0.34410251  0.06076226    -0.72100
O170        O  0.63608862  0.28814389  0.11378476    -0.72800
O171        O  0.68578076  0.37358324  0.05975376    -0.72400
O172        O  0.75541796  0.27992944  0.09714445    -0.72900
O173        O  0.76621874  0.38278080  0.14013957    -0.72300
O174        O  0.68353139  0.29302606  0.16312276    -0.73100
O175        O  0.78586026  0.35667367  0.10713723    -0.72500
O176        O  0.71739448  0.33754364  0.17237671    -0.72900
O177        O  0.68998107  0.40708499  0.14729086    -0.72800
O178        O  0.65435217  0.41125537  0.11542621    -0.72600
C179        C  0.61502225  0.30370539  0.10004329     0.79200
C180        C  0.74002540  0.25396991  0.10662185     0.79600
C181        C  0.71243185  0.36150587  0.04893631     0.78600
C182        C  0.79070918  0.37620591  0.12569625     0.79000
C183        C  0.70247245  0.30939390  0.17824550     0.80100
C184        C  0.66636757  0.42263587  0.13596818     0.79200
Zn185      Zn  0.80319559  0.68306774  0.58484302     1.49700
Zn186      Zn  0.83152255  0.65242071  0.63493439     1.49400
Zn187      Zn  0.75205411  0.66553239  0.62734254     1.49100
Zn188      Zn  0.78638417  0.60252611  0.59934396     1.49500
O189        O  0.79363557  0.65053813  0.61135182    -1.82100
O190        O  0.85323179  0.69851323  0.58569124    -0.72700
O191        O  0.81858330  0.67860263  0.66626932    -0.72600
O192        O  0.73275989  0.70949650  0.61331929    -0.72100
O193        O  0.87358909  0.67573052  0.61997402    -0.72800
O194        O  0.77366853  0.72688879  0.58787931    -0.72400
O195        O  0.76225439  0.67820904  0.66140546    -0.72900
O196        O  0.73909415  0.58456520  0.60864472    -0.72300
O197        O  0.84113657  0.60351168  0.64595582    -0.73100
O198        O  0.71675060  0.62795080  0.62987032    -0.72500
O199        O  0.81614127  0.56802962  0.61886948    -0.72900
O200        O  0.78800002  0.60213109  0.56134668    -0.72800
O201        O  0.79315578  0.65847861  0.55258496    -0.72600
C202        C  0.87790861  0.69391224  0.60066701     0.79200
C203        C  0.78855000  0.68415465  0.67441803     0.79600
C204        C  0.74587727  0.73262585  0.59949481     0.78600
C205        C  0.71526407  0.59699850  0.62180495     0.79000
C206        C  0.83339939  0.57296116  0.63858680     0.80100
C207        C  0.78832130  0.62702646  0.54574296     0.79200
Zn208      Zn  0.68732788  0.80024035  0.87977396     1.49700
Zn209      Zn  0.66407463  0.87362361  0.90290236     1.49400
Zn210      Zn  0.74172506  0.84468927  0.91054988     1.49100
Zn211      Zn  0.71936964  0.86976331  0.85832798     1.49500
O212        O  0.70256017  0.84745663  0.88816261    -1.82100
O213        O  0.63808063  0.79137338  0.88912036    -0.72700
O214        O  0.67799273  0.88938013  0.93845880    -0.72600
O215        O  0.75746636  0.79538275  0.91412936    -0.72100
O216        O  0.62131082  0.84119814  0.90568881    -0.72800
O217        O  0.71591842  0.76455592  0.89644071    -0.72400
O218        O  0.72858933  0.86371175  0.94329096    -0.72900
O219        O  0.76785323  0.88623940  0.86134960    -0.72300
O220        O  0.65119208  0.91449344  0.87939788    -0.73100
O221        O  0.78381081  0.87087171  0.89865935    -0.72500
O222        O  0.69018144  0.90967166  0.84969568    -0.72900
O223        O  0.72028340  0.83735492  0.82950998    -0.72800
O224        O  0.69580398  0.78943362  0.84397326    -0.72600
C225        C  0.61516498  0.80965642  0.89942013     0.79200
C226        C  0.70388171  0.88139993  0.95173804     0.79600
C227        C  0.74435927  0.76638134  0.90770003     0.78600
C228        C  0.79045126  0.88472515  0.87804265     0.79000
C229        C  0.66418428  0.92431897  0.85890970     0.80100
C230        C  0.71080255  0.80594841  0.82679279     0.79200
Zn231      Zn  0.55588283  0.56017228  0.36721257     1.49700
Zn232      Zn  0.59354231  0.50187097  0.33575508     1.49400
Zn233      Zn  0.62710125  0.58128810  0.34111973     1.49100
Zn234      Zn  0.62365735  0.52679343  0.38453643     1.49500
O235        O  0.60016079  0.54333636  0.35623117    -1.82100
O236        O  0.51807442  0.53005095  0.35425647    -0.72700
O237        O  0.60708472  0.51519365  0.30171454    -0.72600
O238        O  0.59772506  0.62600915  0.34050669    -0.72100
O239        O  0.54392017  0.48520284  0.33692997    -0.72800
O240        O  0.54842118  0.61008231  0.35792828    -0.72400
O241        O  0.63697389  0.56513936  0.30478166    -0.72900
O242        O  0.65883929  0.55942150  0.39549894    -0.72300
O243        O  0.62325953  0.46058683  0.34610714    -0.73100
O244        O  0.66977182  0.59379607  0.36367831    -0.72500
O245        O  0.64676621  0.48233698  0.37957491    -0.72900
O246        O  0.59267213  0.51960108  0.41234851    -0.72800
O247        O  0.54985282  0.55458379  0.40370276    -0.72600
C248        C  0.51685027  0.49994433  0.34479691     0.79200
C249        C  0.62514992  0.53933936  0.29213282     0.79600
C250        C  0.56743343  0.63299341  0.34786606     0.78600
C251        C  0.67615129  0.58347244  0.38558560     0.79000
C252        C  0.64343647  0.45768744  0.36435570     0.80100
C253        C  0.56507725  0.53428674  0.41837496     0.79200
Zn254      Zn  0.40260750  0.42216182  0.60509719     1.49700
Zn255      Zn  0.42861955  0.43970445  0.65710997     1.49400
Zn256      Zn  0.42241993  0.50026639  0.62155463     1.49100
Zn257      Zn  0.35368150  0.46566894  0.64106441     1.49500
O258        O  0.40064673  0.45672249  0.63083526    -1.82100
O259        O  0.42255188  0.37726788  0.61712721    -0.72700
O260        O  0.47647800  0.45966476  0.65499476    -0.72600
O261        O  0.44325380  0.49396588  0.58871840    -0.72100
O262        O  0.43474970  0.38822671  0.65599928    -0.72800
O263        O  0.43274394  0.43923466  0.57767372    -0.72400
O264        O  0.46381420  0.51220858  0.64184652    -0.72900
O265        O  0.34075283  0.51480535  0.63158458    -0.72300
O266        O  0.40707545  0.45439859  0.68849196    -0.73100
O267        O  0.38944511  0.54035406  0.62033114    -0.72500
O268        O  0.35258523  0.46522221  0.67934113    -0.72900
O269        O  0.31971107  0.43545024  0.62023054    -0.72800
O270        O  0.35517676  0.41289699  0.59246030    -0.72600
C271        C  0.43379331  0.36742013  0.63784955     0.79200
C272        C  0.48546861  0.49061963  0.64992888     0.79600
C273        C  0.44694369  0.46866116  0.57398505     0.78600
C274        C  0.35728523  0.54141239  0.62408637     0.79000
C275        C  0.37711508  0.46331502  0.69502687     0.80100
C276        C  0.32496392  0.41880835  0.60014511     0.79200
Zn277      Zn  0.15835870  0.88082059  0.59413830     1.49700
Zn278      Zn  0.17334240  0.80586871  0.61923582     1.49400
Zn279      Zn  0.23492958  0.84538434  0.59298296     1.49100
Zn280      Zn  0.20588005  0.87283179  0.64202423     1.49500
O281        O  0.19239633  0.85161454  0.61136050    -1.82100
O282        O  0.11295402  0.85186219  0.58957334    -0.72700
O283        O  0.20208035  0.76807750  0.60533483    -0.72600
O284        O  0.22894571  0.86542564  0.55958907    -0.72100
O285        O  0.12556998  0.80096921  0.60649963    -0.72800
O286        O  0.17939376  0.89395449  0.55944482    -0.72400
O287        O  0.24878965  0.79444760  0.59148134    -0.72900
O288        O  0.25226546  0.89469056  0.64114071    -0.72300
O289        O  0.17492998  0.79451244  0.65552357    -0.73100
O290        O  0.27461675  0.87291618  0.60740387    -0.72500
O291        O  0.20614968  0.83869807  0.66905917    -0.72900
O292        O  0.17515418  0.91075127  0.65091546    -0.72800
O293        O  0.14690436  0.92408659  0.61674579    -0.72600
C294        C  0.10466826  0.82064289  0.59543615     0.79200
C295        C  0.23243012  0.76671783  0.59700253     0.79600
C296        C  0.20744591  0.88489686  0.54890336     0.78600
C297        C  0.27719570  0.89201179  0.62640332     0.79000
C298        C  0.19218058  0.80923527  0.67248925     0.80100
C299        C  0.15481214  0.93009021  0.63927141     0.79200
Zn300      Zn  0.25546689  0.66237032  0.90576908     1.49700
Zn301      Zn  0.27554087  0.62785511  0.85711821     1.49400
Zn302      Zn  0.31168127  0.69770985  0.87012652     1.49100
Zn303      Zn  0.33299901  0.62928960  0.89913594     1.49500
O304        O  0.29446579  0.65413489  0.88395679    -1.82100
O305        O  0.21130910  0.63576252  0.89523875    -0.72700
O306        O  0.26510176  0.65889895  0.82934238    -0.72600
O307        O  0.28561916  0.73736722  0.88416997    -0.72100
O308        O  0.23088252  0.60532525  0.86396979    -0.72800
O309        O  0.24418931  0.71390907  0.90667335    -0.72400
O310        O  0.30196257  0.70250009  0.83400946    -0.72900
O311        O  0.37545817  0.66226423  0.90159435    -0.72300
O312        O  0.30760452  0.59207845  0.84610039    -0.73100
O313        O  0.36150839  0.70630830  0.87749361    -0.72500
O314        O  0.34689998  0.58786089  0.87560347    -0.72900
O315        O  0.31826594  0.61689495  0.93518220    -0.72800
O316        O  0.26959033  0.64666450  0.93941408    -0.72600
C317        C  0.20654448  0.61342572  0.87814815     0.79200
C318        C  0.27839243  0.68712993  0.82193443     0.79600
C319        C  0.25881685  0.74042063  0.89719286     0.78600
C320        C  0.38304599  0.69106706  0.89115674     0.79000
C321        C  0.33426499  0.57824350  0.85484859     0.80100
C322        C  0.29351943  0.62834553  0.94841574     0.79200
Zn323      Zn  0.88028769  0.46799742  0.89136718     1.49700
Zn324      Zn  0.86677417  0.41569121  0.84557044     1.49400
Zn325      Zn  0.89933659  0.49593317  0.84010275     1.49100
Zn326      Zn  0.94214456  0.43493648  0.86253426     1.49500
O327        O  0.89618622  0.45320069  0.85944442    -1.82100
O328        O  0.83893081  0.44194968  0.90033294    -0.72700
O329        O  0.85460745  0.43207525  0.80997256    -0.72600
O330        O  0.87137951  0.53563645  0.85470368    -0.72100
O331        O  0.82396725  0.40773786  0.86909341    -0.72800
O332        O  0.86552735  0.51748878  0.89278474    -0.72400
O333        O  0.88024859  0.48431676  0.80668311    -0.72900
O334        O  0.97757745  0.46689907  0.84950946    -0.72300
O335        O  0.89453165  0.36908764  0.84268599    -0.73100
O336        O  0.94919135  0.51405152  0.83908544    -0.72500
O337        O  0.94799512  0.38761794  0.84843747    -0.72900
O338        O  0.95621453  0.43264642  0.89742335    -0.72800
O339        O  0.91527861  0.46083963  0.91723080    -0.72600
C340        C  0.81829183  0.42037371  0.89056995     0.79200
C341        C  0.86282426  0.45919891  0.79748270     0.79600
C342        C  0.86147826  0.54077993  0.87667833     0.78600
C343        C  0.97733386  0.49864502  0.84340670     0.79000
C344        C  0.92686494  0.36346987  0.84309583     0.80100
C345        C  0.94412060  0.44597404  0.91682063     0.79200
Zn346      Zn  0.09504308  0.49608029  0.15028485     1.49700
Zn347      Zn  0.12666389  0.52091828  0.10132079     1.49400
Zn348      Zn  0.05618037  0.55077756  0.11783109     1.49100
Zn349      Zn  0.12508367  0.57607347  0.14555866     1.49500
O350        O  0.10105905  0.53669013  0.12939921    -1.82100
O351        O  0.12040440  0.45389698  0.13813362    -0.72700
O352        O  0.09683132  0.51312565  0.07259746    -0.72600
O353        O  0.01868741  0.52417165  0.13419465    -0.72100
O354        O  0.14774371  0.47507977  0.10585386    -0.72800
O355        O  0.04553559  0.48168909  0.15315316    -0.72400
O356        O  0.04840379  0.53860125  0.08245870    -0.72900
O357        O  0.09303095  0.61891993  0.14580695    -0.72300
O358        O  0.16298444  0.55399048  0.09226543    -0.73100
O359        O  0.04831920  0.60105795  0.12377124    -0.72500
O360        O  0.16806959  0.59038867  0.12396120    -0.72900
O361        O  0.13566457  0.56091599  0.18199378    -0.72800
O362        O  0.11296819  0.50743636  0.18323682    -0.72600
C363        C  0.14077136  0.45015826  0.12016765     0.79200
C364        C  0.06635308  0.52125359  0.06744954     0.79600
C365        C  0.01800782  0.49580676  0.14596196     0.78600
C366        C  0.06401720  0.62475613  0.13571888     0.79000
C367        C  0.17765204  0.57950999  0.10274786     0.80100
C368        C  0.12839802  0.53273983  0.19360551     0.79200
C369        C  0.96988716  0.44687477  0.98304769     0.14700
C370        C  0.00248067  0.46253661  0.98137348     0.01600
C371        C  0.01739751  0.46792475  0.95826573     0.16600
C372        C  0.99900061  0.45998553  0.93708486     0.26000
C373        C  0.96535430  0.44702385  0.93881142    -0.40300
C374        C  0.95113835  0.43973325  0.96183297     0.33100
C375        C  0.01901827  0.47725270  0.00335842     0.01700
F376        F  0.04862069  0.48347338  0.95617253    -0.12600
F377        F  0.91875360  0.42686116  0.96372615    -0.13100
C378        C  0.05262751  0.46842549  0.00951262     0.16600
C379        C  0.06855389  0.48373524  0.02977349     0.26000
C380        C  0.05097557  0.50817295  0.04435660    -0.40200
C381        C  0.01742501  0.51737221  0.03773681     0.33000
C382        C  0.00169035  0.50208172  0.01741793     0.14700
F383        F  0.06987485  0.44453655  0.99610066    -0.12600
F384        F  0.99959472  0.54106188  0.05090236    -0.13100
F385        F  0.10089661  0.47384044  0.03532387    -0.15400
F386        F  0.96961277  0.51204749  0.01116333    -0.14000
F387        F  0.95571552  0.43995649  0.00525086    -0.14000
F388        F  0.01280169  0.46813239  0.91494920    -0.15400
C389        C  0.13314468  0.56803479  0.84475228     0.14700
C390        C  0.10716324  0.56743089  0.86243662     0.01600
C391        C  0.11361883  0.58238374  0.88561264     0.16600
C392        C  0.14572770  0.59756732  0.89094586     0.26000
C393        C  0.17212788  0.59748623  0.87333154    -0.40300
C394        C  0.16514087  0.58267856  0.85004657     0.33100
C395        C  0.07375500  0.55053973  0.85645407     0.01700
F396        F  0.08908737  0.58159074  0.90322378    -0.12600
F397        F  0.18896123  0.58309095  0.83192451    -0.13100
C398        C  0.07262842  0.51538114  0.84955311     0.16600
C399        C  0.04154478  0.49925310  0.84344383     0.26000
C400        C  0.01061859  0.51785835  0.84411272    -0.40200
C401        C  0.01198972  0.55350615  0.85008175     0.33000
C402        C  0.04323197  0.56954059  0.85646373     0.14700
F403        F  0.10162411  0.49624155  0.84955763    -0.12600
F404        F  0.98293971  0.57247087  0.85102370    -0.13100
F405        F  0.04168720  0.46495404  0.83757737    -0.15400
F406        F  0.04364467  0.60361996  0.86286640    -0.14000
F407        F  0.12730763  0.55483113  0.82198567    -0.14000
F408        F  0.15102350  0.61189402  0.91341868    -0.15400
C409        C  0.28168434  0.64470168  0.01617768     0.14700
C410        C  0.26811729  0.61269268  0.02411709     0.01600
C411        C  0.26837992  0.58431999  0.00771610     0.16600
C412        C  0.28000352  0.58844036  0.98346692     0.26000
C413        C  0.29136595  0.62103589  0.97510878    -0.40300
C414        C  0.29301324  0.64885705  0.99190796     0.33100
C415        C  0.24918752  0.61001684  0.04790229     0.01700
F416        F  0.25449290  0.55337495  0.01451618    -0.12600
F417        F  0.30373235  0.68070777  0.98434536    -0.13100
C418        C  0.21868480  0.62861666  0.05116698     0.16600
C419        C  0.19698988  0.62160133  0.07111328     0.26000
C420        C  0.20555086  0.59626600  0.08850536    -0.40200
C421        C  0.23711204  0.57926360  0.08612299     0.33000
C422        C  0.25878352  0.58611773  0.06605925     0.14700
F423        F  0.20829305  0.65129598  0.03375402    -0.12600
F424        F  0.24551268  0.55379760  0.10210749    -0.13100
F425        F  0.16585148  0.63688234  0.07197283    -0.15400
F426        F  0.28824434  0.56805363  0.06366408    -0.14000
F427        F  0.28222001  0.67246823  0.03157408    -0.14000
F428        F  0.27719824  0.56140118  0.96755379    -0.15400
C429        C  0.22580865  0.79189452  0.73626318     0.14700
C430        C  0.22029041  0.75607089  0.73845411     0.01600
C431        C  0.20164192  0.73829137  0.72020406     0.16600
C432        C  0.19055077  0.75582118  0.69924280     0.26000
C433        C  0.19817599  0.79145620  0.69620517    -0.40300
C434        C  0.21514308  0.80938945  0.71537338     0.33100
C435        C  0.23537689  0.73732051  0.75933041     0.01700
F436        F  0.19561685  0.70362220  0.72212894    -0.12600
F437        F  0.22256653  0.84380931  0.71371784    -0.13100
C438        C  0.21443592  0.71826850  0.77536639     0.16600
C439        C  0.22875281  0.70125274  0.79536891     0.26000
C440        C  0.26425670  0.70335475  0.79981863    -0.40200
C441        C  0.28515730  0.72284243  0.78397576     0.33000
C442        C  0.27087214  0.73936006  0.76370572     0.14700
F443        F  0.17995408  0.71730663  0.77221771    -0.12600
F444        F  0.31936681  0.72574488  0.78803135    -0.13100
F445        F  0.20759550  0.68424752  0.81114836    -0.15400
F446        F  0.29170793  0.75738826  0.74829471    -0.14000
F447        F  0.24220762  0.80993724  0.75428011    -0.14000
F448        F  0.17392202  0.73744591  0.68151040    -0.15400
C449        C  0.25017953  0.67145892  0.60860184     0.14700
C450        C  0.28473294  0.66852525  0.60169168     0.01600
C451        C  0.30103760  0.69746251  0.59082950     0.16600
C452        C  0.28392862  0.72913267  0.58847654     0.26000
C453        C  0.24948972  0.73222495  0.59587642    -0.40300
C454        C  0.23258384  0.70243331  0.60514199     0.33100
C455        C  0.30383392  0.63589531  0.60689729     0.01700
F456        F  0.33380671  0.69531259  0.58272956    -0.12600
F457        F  0.19925235  0.70344297  0.61216521    -0.13100
C458        C  0.28931775  0.60312849  0.60133775     0.16600
C459        C  0.30601726  0.57256004  0.60793905     0.26000
C460        C  0.33859286  0.57390691  0.61892409    -0.40200
C461        C  0.35352376  0.60651120  0.62403161     0.33000
C462        C  0.33605763  0.63713256  0.61857588     0.14700
F463        F  0.25919676  0.60057230  0.58899689    -0.12600
F464        F  0.38461798  0.60876596  0.63508788    -0.13100
F465        F  0.29073434  0.54154845  0.60283210    -0.15400
F466        F  0.35031357  0.66796324  0.62541749    -0.14000
F467        F  0.23369910  0.64490939  0.62008187    -0.14000
F468        F  0.30158735  0.75697457  0.57971055    -0.15400
C469        C  0.33709631  0.50442075  0.81026064     0.14700
C470        C  0.36449578  0.51471878  0.79520485     0.01600
C471        C  0.38660675  0.54144861  0.80342976     0.16600
C472        C  0.37937610  0.55971944  0.82520038     0.26000
C473        C  0.35010206  0.55136021  0.83911814    -0.40300
C474        C  0.32990212  0.52259968  0.83191588     0.33100
C475        C  0.36734151  0.50022644  0.76990112     0.01700
F476        F  0.41338624  0.55189442  0.78930489    -0.12600
F477        F  0.30128112  0.51407022  0.84475753    -0.13100
C478        C  0.34128133  0.50626920  0.75263889     0.16600
C479        C  0.34359386  0.49321588  0.72863783     0.26000
C480        C  0.37205612  0.47356335  0.72129497    -0.40200
C481        C  0.39786498  0.46701263  0.73892452     0.33000
C482        C  0.39562999  0.48049346  0.76279684     0.14700
F483        F  0.31400735  0.52599108  0.75884270    -0.12600
F484        F  0.42566500  0.44779663  0.73309583    -0.13100
F485        F  0.31854911  0.50111269  0.71239123    -0.15400
F486        F  0.42117252  0.47418332  0.77901455    -0.14000
F487        F  0.31595336  0.47806571  0.80312224    -0.14000
F488        F  0.39874139  0.58796642  0.83118353    -0.15400
C489        C  0.55616550  0.50125774  0.48323630     0.14700
C490        C  0.52092362  0.50488171  0.48712812     0.01600
C491        C  0.50062988  0.52043148  0.46907573     0.16600
C492        C  0.51505125  0.53083526  0.44688928     0.26000
C493        C  0.55024505  0.52642830  0.44259927    -0.32300
C494        C  0.57078267  0.51203187  0.46118974     0.33100
C495        C  0.50491099  0.49217645  0.50983321     0.01700
F496        F  0.46668615  0.52536936  0.47294304    -0.12600
F497        F  0.60499481  0.50797012  0.45799461    -0.13100
C498        C  0.51503292  0.50578554  0.53261781     0.16600
C499        C  0.49716653  0.49653911  0.55375835     0.26000
C500        C  0.46853641  0.47409762  0.55228205    -0.40200
C501        C  0.45987024  0.45873292  0.52972314     0.33000
C502        C  0.47804234  0.46768192  0.50862193     0.14700
F503        F  0.54114125  0.52925036  0.53424012    -0.12600
F504        F  0.43274300  0.43655830  0.52785477    -0.13100
F505        F  0.50759941  0.50982309  0.57565968    -0.15400
F506        F  0.46887899  0.45317680  0.48683278    -0.14000
F507        F  0.57626009  0.48639220  0.50050626    -0.14000
F508        F  0.49424734  0.54388074  0.42931479    -0.15400
C509        C  0.46423218  0.74371461  0.87873898     0.14700
C510        C  0.48099842  0.74317909  0.90153032     0.01600
C511        C  0.46567813  0.72473388  0.92097192     0.16600
C512        C  0.43415055  0.70723804  0.91764059     0.26000
C513        C  0.41735648  0.70781292  0.89476638    -0.40300
C514        C  0.43283876  0.72635287  0.87539601     0.33100
C515        C  0.51494869  0.76097589  0.90442766     0.01700
F516        F  0.48089354  0.72433755  0.94334339    -0.12600
F517        F  0.41785966  0.72713859  0.85294123    -0.13100
C518        C  0.51821551  0.79716428  0.90148146     0.16600
C519        C  0.55064616  0.81337883  0.90137874     0.26000
C520        C  0.58061176  0.79359082  0.90345535    -0.40200
C521        C  0.57714987  0.75752993  0.90751548     0.33000
C522        C  0.54469460  0.74150763  0.90819205     0.14700
F523        F  0.48993384  0.81674811  0.89811150    -0.12600
F524        F  0.60528101  0.73759211  0.91057730    -0.13100
F525        F  0.55275208  0.84820400  0.89792210    -0.15400
F526        F  0.54240312  0.70661609  0.91134626    -0.14000
F527        F  0.47869701  0.76056550  0.85946180    -0.14000
F528        F  0.41942769  0.69090292  0.93703040    -0.15400
C529        C  0.82687991  0.63298958  0.87434311     0.14700
C530        C  0.81502827  0.63774468  0.89844920     0.01600
C531        C  0.81785179  0.61041366  0.91521006     0.16600
C532        C  0.83260615  0.57898305  0.90811494     0.26000
C533        C  0.84505187  0.57413597  0.88397371    -0.40300
C534        C  0.84163193  0.60159399  0.86713525     0.33100
C535        C  0.79859392  0.67085201  0.90556634     0.01700
F536        F  0.80662198  0.61427678  0.93861112    -0.12600
F537        F  0.85226622  0.59817628  0.84357463    -0.13100
C538        C  0.76428929  0.67118341  0.91341816     0.16600
C539        C  0.74699381  0.70263715  0.91586710     0.26000
C540        C  0.76394399  0.73423215  0.91099237    -0.40200
C541        C  0.79900021  0.73400775  0.90514034     0.33000
C542        C  0.81614739  0.70257432  0.90239324     0.14700
F543        F  0.74686130  0.64099579  0.91716555    -0.12600
F544        F  0.81594081  0.76405760  0.89991071    -0.13100
F545        F  0.71330131  0.70220145  0.92198958    -0.15400
F546        F  0.84957395  0.70305047  0.89557670    -0.14000
F547        F  0.82341513  0.65862515  0.85752146    -0.14000
F548        F  0.83439652  0.55328732  0.92502435    -0.15400
C549        C  0.00809024  0.80567881  0.59535178     0.14700
C550        C  0.00612374  0.77048876  0.58833745     0.01600
C551        C  0.03599426  0.75384531  0.58058316     0.16600
C552        C  0.06763506  0.77122447  0.58131786     0.26000
C553        C  0.07019561  0.80574960  0.58980799    -0.40300
C554        C  0.03991994  0.82324187  0.59606210     0.33100
C555        C  0.97366859  0.75018257  0.59075938     0.01700
F556        F  0.03459367  0.72029960  0.57290671    -0.12600
F557        F  0.04140052  0.85640953  0.60449903    -0.13100
C558        C  0.94641807  0.75495958  0.57440187     0.16600
C559        C  0.91587614  0.73573490  0.57692737     0.26000
C560        C  0.91175326  0.71144905  0.59613017    -0.40200
C561        C  0.93983577  0.70589258  0.61193101     0.33000
C562        C  0.97029018  0.72511625  0.60927368     0.14700
F563        F  0.94947691  0.77817502  0.55585599    -0.12600
F564        F  0.93793853  0.68203087  0.63015171    -0.13100
F565        F  0.89023136  0.74141629  0.56067085    -0.15400
F566        F  0.99643712  0.71968528  0.62516920    -0.14000
F567        F  0.97946317  0.82240405  0.60277172    -0.14000
F568        F  0.09612460  0.75392047  0.57431355    -0.15400
C569        C  0.87197034  0.52470441  0.69204028     0.14700
C570        C  0.84615592  0.50015159  0.69723076     0.01600
C571        C  0.81933656  0.49548945  0.68028941     0.16600
C572        C  0.81718884  0.51668096  0.65935082     0.26000
C573        C  0.84151653  0.54344165  0.65527562    -0.40300
C574        C  0.86971944  0.54607287  0.67133945     0.33100
C575        C  0.84502974  0.48368963  0.72194119     0.01700
F576        F  0.79411368  0.47186195  0.68481576    -0.12600
F577        F  0.89411839  0.57092228  0.66784435    -0.13100
C578        C  0.82513439  0.49886490  0.74049813     0.16600
C579        C  0.82912881  0.48891501  0.76503934     0.26000
C580        C  0.85229366  0.46279594  0.77147217    -0.40200
C581        C  0.87027659  0.44567687  0.75270870     0.33000
C582        C  0.86701400  0.45636232  0.72814450     0.14700
F583        F  0.80358375  0.52514889  0.73503278    -0.12600
F584        F  0.89290912  0.42045158  0.75839476    -0.13100
F585        F  0.81180376  0.50621815  0.78276987    -0.15400
F586        F  0.88657806  0.44128758  0.71061320    -0.14000
F587        F  0.89804937  0.52990956  0.70814275    -0.14000
F588        F  0.78954430  0.51316351  0.64442015    -0.15400
C589        C  0.79226207  0.74312091  0.73003226     0.14700
C590        C  0.76107638  0.73416035  0.74139351     0.01600
C591        C  0.74177169  0.70608498  0.73235800     0.16600
C592        C  0.75252132  0.68814560  0.71162161     0.26000
C593        C  0.78254410  0.69832856  0.69917276    -0.40300
C594        C  0.80306703  0.72516955  0.70901027     0.33100
C595        C  0.74844597  0.75325372  0.76301082     0.01700
F596        F  0.71176084  0.69679684  0.74318692    -0.12600
F597        F  0.83243581  0.73517383  0.69762280    -0.13100
C598        C  0.73552697  0.78699674  0.76076820     0.16600
C599        C  0.72218676  0.80414719  0.78132881     0.26000
C600        C  0.72069246  0.78726713  0.80419558    -0.40200
C601        C  0.73288132  0.75312886  0.80606875     0.33000
C602        C  0.74694023  0.73649184  0.78573837     0.14700
F603        F  0.73530876  0.80298496  0.73861754    -0.12600
F604        F  0.73280134  0.73638826  0.82792942    -0.13100
F605        F  0.71045537  0.83700176  0.77885078    -0.15400
F606        F  0.75964597  0.70403701  0.78827732    -0.14000
F607        F  0.81189635  0.76944716  0.73912088    -0.14000
F608        F  0.73298449  0.66121451  0.70326429    -0.15400
C609        C  0.64004810  0.53422415  0.61775012     0.14700
C610        C  0.62508425  0.53851752  0.64103431     0.01600
C611        C  0.64195190  0.55925976  0.65858372     0.16600
C612        C  0.67167277  0.57766442  0.65238816     0.26000
C613        C  0.68555491  0.57506074  0.62865493    -0.40300
C614        C  0.67037133  0.55201952  0.61172197     0.33100
C615        C  0.59015966  0.52491384  0.64615226     0.01700
F616        F  0.62903550  0.56237909  0.68158949    -0.12600
F617        F  0.68375227  0.54829242  0.58891129    -0.13100
C618        C  0.58214102  0.48939428  0.64386355     0.16600
C619        C  0.54828051  0.47764655  0.64678082     0.26000
C620        C  0.52188026  0.50139692  0.65171597    -0.40200
C621        C  0.53037092  0.53661085  0.65513502     0.33000
C622        C  0.56407777  0.54823104  0.65233429     0.14700
F623        F  0.60695611  0.46623678  0.63831779    -0.12600
F624        F  0.50579911  0.56006174  0.66059026    -0.13100
F625        F  0.54112344  0.44339507  0.64335417    -0.15400
F626        F  0.57094092  0.58273492  0.65444885    -0.14000
F627        F  0.62425775  0.51447999  0.60036396    -0.14000
F628        F  0.68689938  0.59812178  0.66964229    -0.15400
C629        C  0.75141047  0.58594632  0.48743730     0.14700
C630        C  0.75711656  0.61228478  0.47003625     0.01600
C631        C  0.77623384  0.64174207  0.47705538     0.16600
C632        C  0.78817069  0.64553838  0.50122433     0.26000
C633        C  0.78089463  0.62006336  0.51916188    -0.40300
C634        C  0.76318006  0.58970057  0.51167385     0.33100
C635        C  0.74132011  0.60974196  0.44512249     0.01700
F636        F  0.78297247  0.66715948  0.46051649    -0.12600
F637        F  0.75554270  0.56432846  0.52805494    -0.13100
C638        C  0.71492654  0.63239253  0.43829834     0.16600
C639        C  0.69613440  0.62662143  0.41663171     0.26000
C640        C  0.70365972  0.59838660  0.40118768    -0.40200
C641        C  0.73141107  0.57705717  0.40732812     0.33000
C642        C  0.75006076  0.58267879  0.42902396     0.14700
F643        F  0.70525987  0.65819265  0.45374945    -0.12600
F644        F  0.73823866  0.54860220  0.39348536    -0.13100
F645        F  0.66814470  0.64622622  0.41218578    -0.15400
F646        F  0.77538300  0.56040505  0.43504878    -0.14000
F647        F  0.73278707  0.55726138  0.48127778    -0.14000
F648        F  0.80643960  0.67456975  0.50710139    -0.15400
C649        C  0.66693537  0.51025747  0.23317770     0.14700
C650        C  0.63923478  0.51129259  0.21649736     0.01600
C651        C  0.60834615  0.52610281  0.22450907     0.16600
C652        C  0.60462397  0.53758902  0.24881789     0.26000
C653        C  0.63202599  0.53585317  0.26549841    -0.40300
C654        C  0.66341157  0.52271655  0.25730776     0.33100
C655        C  0.64181321  0.49439559  0.19167855     0.01700
F656        F  0.58129274  0.52847107  0.20900217    -0.12600
F657        F  0.68979306  0.51919537  0.27328753    -0.13100
C658        C  0.61742558  0.46923962  0.18402446     0.16600
C659        C  0.62262236  0.44947484  0.16265423     0.26000
C660        C  0.65283018  0.45337208  0.14897472    -0.40200
C661        C  0.67594665  0.48016526  0.15554742     0.33000
C662        C  0.67023492  0.50080762  0.17639033     0.14700
F663        F  0.59025902  0.46115731  0.19849916    -0.12600
F664        F  0.70586265  0.48404610  0.14312131    -0.13100
F665        F  0.60025465  0.42339254  0.15713274    -0.15400
F666        F  0.69367000  0.52567655  0.18244992    -0.14000
F667        F  0.69668660  0.49476552  0.22675994    -0.14000
F668        F  0.57356666  0.54879467  0.25648495    -0.15400
C669        C  0.92306850  0.47672789  0.14263763     0.14700
C670        C  0.92233175  0.44054427  0.14528886     0.01600
C671        C  0.95253400  0.42307634  0.15118426     0.16600
C672        C  0.98349147  0.44144582  0.15329569     0.26000
C673        C  0.98471976  0.47758761  0.14923033    -0.40300
C674        C  0.95386937  0.49516570  0.14468684     0.33100
C675        C  0.88989880  0.42136096  0.14138883     0.01700
F676        F  0.95212184  0.38815273  0.15438934    -0.12600
F677        F  0.95355664  0.53007973  0.14138573    -0.13100
C678        C  0.88552706  0.39963697  0.12088964     0.16600
C679        C  0.85345293  0.38471378  0.11573857     0.26000
C680        C  0.82517838  0.39125120  0.13113429    -0.40200
C681        C  0.83035098  0.41203271  0.15227720     0.33000
C682        C  0.86231849  0.42695096  0.15721769     0.14700
F683        F  0.91208697  0.39378719  0.10541198    -0.12600
F684        F  0.80452239  0.41828705  0.16829563    -0.13100
F685        F  0.85014100  0.36425369  0.09555171    -0.15400
F686        F  0.86638300  0.44721241  0.17745718    -0.14000
F687        F  0.89405675  0.49406729  0.13692910    -0.14000
F688        F  0.01245918  0.42344935  0.15797914    -0.15400
C689        C  0.70482711  0.39301722  0.98229318     0.14700
C690        C  0.73567507  0.38100691  0.97204282     0.01600
C691        C  0.75759666  0.36148982  0.98682527     0.16600
C692        C  0.74956961  0.35470184  0.01130995     0.26000
C693        C  0.71921290  0.36754602  0.02212329    -0.40300
C694        C  0.69657018  0.38621406  0.00702344     0.33100
C695        C  0.74753613  0.39140829  0.94701665     0.01700
F696        F  0.78798436  0.35026824  0.97785480    -0.12600
F697        F  0.66660781  0.39821049  0.01615164    -0.13100
C698        C  0.75429364  0.42653162  0.94201196     0.16600
C699        C  0.77403430  0.43602973  0.92162621     0.26000
C700        C  0.78807603  0.41061175  0.90591335    -0.40200
C701        C  0.77833791  0.37576421  0.90943449     0.33000
C702        C  0.75813293  0.36626962  0.92978877     0.14700
F703        F  0.74481884  0.45150343  0.95820798    -0.12600
F704        F  0.79112249  0.35058662  0.89471236    -0.13100
F705        F  0.78186228  0.47016151  0.91839690    -0.15400
F706        F  0.75098258  0.33218731  0.93369907    -0.14000
F707        F  0.68277624  0.41152431  0.96839300    -0.14000
F708        F  0.77238628  0.33601069  0.02445821    -0.15400
C709        C  0.74393875  0.32471441  0.39051016     0.14700
C710        C  0.70823982  0.32859680  0.39123065     0.01600
C711        C  0.68772053  0.30099950  0.39972518     0.16600
C712        C  0.70258277  0.26951692  0.40643809     0.26000
C713        C  0.73824825  0.26500393  0.40471739    -0.40300
C714        C  0.75887720  0.29331851  0.39731303     0.33100
C715        C  0.69260755  0.36164485  0.38337248     0.01700
F716        F  0.65323012  0.30441072  0.40124178    -0.12600
F717        F  0.79326931  0.28992130  0.39490224    -0.13100
C718        C  0.67008195  0.36273609  0.36326768     0.16600
C719        C  0.65530313  0.39417923  0.35610236     0.26000
C720        C  0.66230711  0.42499906  0.36928340    -0.40200
C721        C  0.68583504  0.42370890  0.38899836     0.33000
C722        C  0.70067968  0.39245244  0.39588821     0.14700
F723        F  0.66250684  0.33331800  0.35051903    -0.12600
F724        F  0.69431801  0.45261398  0.40207146    -0.13100
F725        F  0.63374489  0.39420862  0.33657944    -0.15400
F726        F  0.72236475  0.39212654  0.41535137    -0.14000
F727        F  0.76423063  0.35084327  0.38198259    -0.14000
F728        F  0.68196308  0.24308079  0.41405505    -0.15400
C729        C  0.73609663  0.30058114  0.24253223     0.14700
C730        C  0.73886873  0.26445406  0.24443160     0.01600
C731        C  0.72619767  0.24300946  0.22562515     0.16600
C732        C  0.71198816  0.25762048  0.20463089     0.26000
C733        C  0.71038306  0.29398626  0.20221443    -0.40300
C734        C  0.72197204  0.31528040  0.22158888     0.33100
C735        C  0.75289730  0.24906120  0.26680040     0.01700
F736        F  0.72770801  0.20792353  0.22761388    -0.12600
F737        F  0.72032660  0.35038865  0.22003320    -0.13100
C738        C  0.73526354  0.25331066  0.28886500     0.16600
C739        C  0.74644082  0.23678970  0.30990583     0.26000
C740        C  0.77546766  0.21523971  0.30922473    -0.40200
C741        C  0.79436452  0.21264337  0.28734721     0.33000
C742        C  0.78296254  0.22937157  0.26617222     0.14700
F743        F  0.70631813  0.27249563  0.28981732    -0.12600
F744        F  0.82298818  0.19302490  0.28617003    -0.13100
F745        F  0.72826441  0.24152305  0.33086710    -0.15400
F746        F  0.80093993  0.22608434  0.24500971    -0.14000
F747        F  0.74781292  0.32161259  0.26078846    -0.14000
F748        F  0.70167528  0.23620787  0.18615947    -0.15400
C749        C  0.03360944  0.23460359  0.84637160     0.14700
C750        C  0.99990560  0.23311330  0.83704713     0.01600
C751        C  0.98675656  0.20078459  0.82925558     0.16600
C752        C  0.00621901  0.17052006  0.83171607     0.26000
C753        C  0.03942590  0.17180891  0.84187288    -0.40300
C754        C  0.05324969  0.20431921  0.84858332     0.33100
C755        C  0.97840613  0.26511854  0.83608257     0.01700
F756        F  0.95494194  0.19848330  0.81931523    -0.12600
F757        F  0.08499088  0.20652057  0.85863037    -0.13100
C758        C  0.98950292  0.29431459  0.82276546     0.16600
C759        C  0.97143677  0.32558957  0.82392739     0.26000
C760        C  0.94142423  0.32843321  0.83813567    -0.40200
C761        C  0.92927738  0.29872278  0.85047975     0.33000
C762        C  0.94760407  0.26740415  0.84948678     0.14700
F763        F  0.01827615  0.29269146  0.80887316    -0.12600
F764        F  0.90116361  0.30070673  0.86501367    -0.13100
F765        F  0.98382321  0.35355787  0.81156710    -0.15400
F766        F  0.93630120  0.23987170  0.86279828    -0.14000
F767        F  0.04694180  0.26523883  0.85447023    -0.14000
F768        F  0.99252503  0.13972204  0.82421198    -0.15400
C769        C  0.91983345  0.98500677  0.84987820     0.14700
C770        C  0.92024303  0.94945617  0.85526438     0.01600
C771        C  0.95135901  0.93169507  0.85505486     0.16600
C772        C  0.98208022  0.94963774  0.85075775     0.26000
C773        C  0.98210363  0.98579246  0.84700178    -0.40300
C774        C  0.95051426  0.00310013  0.84573482     0.33100
C775        C  0.88819675  0.93102185  0.86151665     0.01700
F776        F  0.95204574  0.89721629  0.86002749    -0.12600
F777        F  0.94939962  0.03766827  0.84104867    -0.13100
C778        C  0.86911291  0.91441848  0.84310884     0.16600
C779        C  0.83781880  0.89847003  0.84871055     0.26000
C780        C  0.82502697  0.89901460  0.87288336    -0.40200
C781        C  0.84524873  0.91397466  0.89158249     0.33000
C782        C  0.87647325  0.93023727  0.88585033     0.14700
F783        F  0.88069466  0.91401534  0.81964579    -0.12600
F784        F  0.83438443  0.91379421  0.91522247    -0.13100
F785        F  0.82025282  0.88199055  0.83052062    -0.15400
F786        F  0.89508101  0.94568383  0.90395189    -0.14000
F787        F  0.88975542  0.00235104  0.84936636    -0.14000
F788        F  0.01191760  0.93197689  0.85194787    -0.15400
C789        C  0.17418490  0.87608203  0.86866781     0.14700
C790        C  0.19426106  0.87360647  0.88990933     0.01600
C791        C  0.19726597  0.90233575  0.90559044     0.16600
C792        C  0.18007737  0.93312347  0.90025595     0.26000
C793        C  0.15939876  0.93574391  0.87899565    -0.40300
C794        C  0.15686123  0.90672637  0.86324787     0.33100
C795        C  0.21179780  0.84074731  0.89553039     0.01700
F796        F  0.21636469  0.90033056  0.92633686    -0.12600
F797        F  0.13732616  0.90767974  0.84268927    -0.13100
C798        C  0.24717211  0.83778636  0.89187417     0.16600
C799        C  0.26292805  0.80546967  0.89391438     0.26000
C800        C  0.24350641  0.77544604  0.89969304    -0.40200
C801        C  0.20836687  0.77909839  0.90491114     0.33000
C802        C  0.19271235  0.81146406  0.90273260     0.14700
F803        F  0.26615394  0.86588400  0.88510281    -0.12600
F804        F  0.18861627  0.75108889  0.91064816    -0.13100
F805        F  0.29705138  0.80346967  0.88941971    -0.15400
F806        F  0.15855855  0.81406670  0.90683736    -0.14000
F807        F  0.17148203  0.84865828  0.85306711    -0.14000
F808        F  0.18359960  0.96016166  0.91613424    -0.15400
C809        C  0.10016326  0.03394468  0.72972292     0.14700
C810        C  0.13026956  0.01857077  0.72076850     0.01600
C811        C  0.15885000  0.01680415  0.73659248     0.16600
C812        C  0.15688654  0.02880498  0.76093257     0.26000
C813        C  0.12626313  0.04251137  0.77009423    -0.40300
C814        C  0.09813846  0.04546303  0.75415496     0.33100
C815        C  0.13131570  0.00170296  0.69590058     0.01700
F816        F  0.18800713  0.00116932  0.72903613    -0.12600
F817        F  0.06805987  0.05808083  0.76266961    -0.13100
C818        C  0.15836012  0.00885338  0.67953095     0.16600
C819        C  0.16345036  0.98798012  0.65868959     0.26000
C820        C  0.14133894  0.95981438  0.65348221    -0.40200
C821        C  0.11268528  0.95449561  0.66863615     0.33000
C822        C  0.10757085  0.97529030  0.68953880     0.14700
F823        F  0.18112868  0.03479794  0.68452973    -0.12600
F824        F  0.09173358  0.92668290  0.66471108    -0.13100
F825        F  0.19195207  0.99317783  0.64488060    -0.15400
F826        F  0.08120608  0.96731457  0.70478723    -0.14000
F827        F  0.07231359  0.03693129  0.71502431    -0.14000
F828        F  0.18419974  0.02486905  0.77602647    -0.15400
C829        C  0.99653396  0.69530066  0.13290312     0.14700
C830        C  0.01569726  0.72549665  0.13784508     0.01600
C831        C  0.05084194  0.72252610  0.14305892     0.16600
C832        C  0.06665030  0.68988108  0.14288520     0.26000
C833        C  0.04754193  0.65953111  0.13751044    -0.40300
C834        C  0.01209212  0.66276329  0.13286326     0.33100
C835        C  0.99849476  0.75980371  0.13803893     0.01700
F836        F  0.07001195  0.75136746  0.14779815    -0.12600
F837        F  0.99208749  0.63432437  0.12861257    -0.13100
C838        C  0.99511402  0.77853966  0.15998631     0.16600
C839        C  0.97726485  0.80994349  0.16057210     0.26000
C840        C  0.96261283  0.82372319  0.13903558    -0.40200
C841        C  0.96607832  0.80459471  0.11698599     0.33000
C842        C  0.98373085  0.77304556  0.11656897     0.14700
F843        F  0.00862190  0.76601025  0.18106648    -0.12600
F844        F  0.95268187  0.81637833  0.09564267    -0.13100
F845        F  0.97449537  0.82677871  0.18236162    -0.15400
F846        F  0.98683141  0.75555601  0.09503374    -0.14000
F847        F  0.96239273  0.69728812  0.12849886    -0.14000
F848        F  0.10076594  0.68815820  0.14738244    -0.15400
C849        C  0.78589377  0.87985144  0.04769186     0.14700
C850        C  0.75750974  0.90198718  0.04717372     0.01600
C851        C  0.75263222  0.92516303  0.06679379     0.16600
C852        C  0.77629911  0.92679069  0.08624442     0.26000
C853        C  0.80563011  0.90564597  0.08619645    -0.40300
C854        C  0.80969575  0.88170415  0.06687202     0.33100
C855        C  0.73453223  0.90133687  0.02533258     0.01700
F856        F  0.72538111  0.94672559  0.06686733    -0.12600
F857        F  0.83730870  0.86061493  0.06615427    -0.13100
C858        C  0.71618167  0.87086488  0.01944624     0.16600
C859        C  0.70230551  0.86611239  0.99594630     0.26000
C860        C  0.70646910  0.89175146  0.97786890    -0.40200
C861        C  0.72214638  0.92350536  0.98440122     0.33000
C862        C  0.73573404  0.92843684  0.00807712     0.14700
F863        F  0.71400334  0.84461079  0.03592898    -0.12600
F864        F  0.72728699  0.94837373  0.96718165    -0.13100
F865        F  0.68747597  0.83513283  0.99014413    -0.15400
F866        F  0.75284928  0.95839216  0.01337070    -0.14000
F867        F  0.79145360  0.85743579  0.02887966    -0.14000
F868        F  0.77164028  0.95064136  0.10428442    -0.15400
C869        C  0.83027520  0.12148822  0.13880841     0.14700
C870        C  0.80644091  0.12255345  0.11953536     0.01600
C871        C  0.79964808  0.09240010  0.10573863     0.16600
C872        C  0.81684840  0.06165081  0.11100925     0.26000
C873        C  0.84100647  0.06081693  0.13009573    -0.40300
C874        C  0.84759952  0.09086597  0.14395067     0.33100
C875        C  0.78896301  0.15531243  0.11387494     0.01700
F876        F  0.77715871  0.09309205  0.08675990    -0.12600
F877        F  0.87053298  0.09035964  0.16264395    -0.13100
C878        C  0.80812496  0.18474952  0.10705828     0.16600
C879        C  0.79212522  0.21663687  0.10378508     0.26000
C880        C  0.75647668  0.21953040  0.10699536    -0.40200
C881        C  0.73721329  0.18954846  0.11308476     0.33000
C882        C  0.75337947  0.15778785  0.11651518     0.14700
F883        F  0.84254324  0.18268718  0.10403481    -0.12600
F884        F  0.70279728  0.19101925  0.11638651    -0.13100
F885        F  0.81189057  0.24492832  0.09874145    -0.15400
F886        F  0.73444111  0.12973936  0.12346021    -0.14000
F887        F  0.83652742  0.15010909  0.15277029    -0.14000
F888        F  0.81106050  0.03314135  0.09682493    -0.15400
C889        C  0.88379642  0.95742705  0.27185793     0.14700
C890        C  0.85731577  0.98097754  0.27643825     0.01600
C891        C  0.83435610  0.98844466  0.25733610     0.16600
C892        C  0.83907953  0.97446958  0.23374578     0.26000
C893        C  0.86722251  0.95286169  0.22855635    -0.40300
C894        C  0.88857166  0.94332315  0.24828907     0.33100
C895        C  0.85482145  0.99971744  0.30043912     0.01700
F896        F  0.80837669  0.01096790  0.26116739    -0.12600
F897        F  0.91456426  0.92076935  0.24472575    -0.13100
C898        C  0.88014359  0.02415238  0.30731027     0.16600
C899        C  0.87517472  0.04612938  0.32758682     0.26000
C900        C  0.84497685  0.04386489  0.34166239    -0.40200
C901        C  0.82110667  0.01731394  0.33606213     0.33000
C902        C  0.82583825  0.99572066  0.31551830     0.14700
F903        F  0.90870041  0.02834751  0.29340365    -0.12600
F904        F  0.79169444  0.01422591  0.34915609    -0.13100
F905        F  0.89922805  0.07078138  0.33280932    -0.15400
F906        F  0.80136728  0.97179487  0.30973818    -0.14000
F907        F  0.90547466  0.94853612  0.29018630    -0.14000
F908        F  0.81707893  0.98383304  0.21572431    -0.15400
C909        C  0.99548591  0.02930293  0.03539938     0.14700
C910        C  0.00412669  0.00516021  0.01730111     0.01600
C911        C  0.99797119  0.96971789  0.02123703     0.16600
C912        C  0.98197982  0.95854842  0.04279520     0.26000
C913        C  0.97223049  0.98280279  0.06086412    -0.40300
C914        C  0.98004621  0.01831792  0.05711689     0.33100
C915        C  0.01851316  0.01731796  0.99394640     0.01700
F916        F  0.00703946  0.94601911  0.00401183    -0.12600
F917        F  0.97207411  0.04275379  0.07412202    -0.13100
C918        C  0.05392250  0.02160570  0.99126709     0.16600
C919        C  0.06751973  0.03322332  0.96904890     0.26000
C920        C  0.04572992  0.04112228  0.94919557    -0.40200
C921        C  0.01005725  0.03755774  0.95230742     0.33000
C922        C  0.99664952  0.02535934  0.97445196     0.14700
F923        F  0.07531856  0.01391512  0.01006322    -0.12600
F924        F  0.98818599  0.04419481  0.93359809    -0.13100
F925        F  0.10206417  0.03624261  0.96691266    -0.15400
F926        F  0.96231165  0.02059514  0.97674676    -0.14000
F927        F  0.00139926  0.06370324  0.03176354    -0.14000
F928        F  0.97598883  0.92405929  0.04584994    -0.15400
C929        C  0.52448334  0.22639570  0.62710767     0.14700
C930        C  0.49957449  0.23374073  0.64491714     0.01600
C931        C  0.49242867  0.20897630  0.66309203     0.16600
C932        C  0.50924070  0.17705196  0.66310186     0.26000
C933        C  0.53332612  0.16900304  0.64469037    -0.40300
C934        C  0.54094153  0.19433529  0.62681880     0.33100
C935        C  0.48047858  0.26682207  0.64394704     0.01700
F936        F  0.46806022  0.21509393  0.68027272    -0.12600
F937        F  0.56415286  0.18813704  0.60885127    -0.13100
C938        C  0.46325394  0.27624394  0.62239964     0.16600
C939        C  0.44726326  0.30839741  0.62060966     0.26000
C940        C  0.44766094  0.33180768  0.64056636    -0.40200
C941        C  0.46382844  0.32163007  0.66252998     0.33000
C942        C  0.48005084  0.28951508  0.66415738     0.14700
F943        F  0.46196823  0.25420551  0.60293096    -0.12600
F944        F  0.46509865  0.34313473  0.68229723    -0.13100
F945        F  0.43206925  0.31671815  0.59905665    -0.15400
F946        F  0.49644537  0.28117606  0.68524727    -0.14000
F947        F  0.53284688  0.25037040  0.60985513    -0.14000
F948        F  0.50066413  0.15349717  0.68056297    -0.15400
C949        C  0.34201090  0.95314303  0.65649482     0.14700
C950        C  0.37192696  0.94535172  0.64351250     0.01600
C951        C  0.37038986  0.92134865  0.62410883     0.16600
C952        C  0.33953844  0.90467630  0.61809300     0.26000
C953        C  0.30959584  0.91128284  0.63169664    -0.40300
C954        C  0.31114758  0.93625330  0.65074664     0.33100
C955        C  0.40502136  0.96164596  0.65036531     0.01700
F956        F  0.39892137  0.91408916  0.61091634    -0.12600
F957        F  0.28286135  0.94449529  0.66391792    -0.13100
C958        C  0.43192496  0.94093959  0.65873876     0.16600
C959        C  0.46435368  0.95545016  0.66288151     0.26000
C960        C  0.47037231  0.99107686  0.65895512    -0.40200
C961        C  0.44283548  0.01215563  0.65181408     0.33000
C962        C  0.41044490  0.99747897  0.64746029     0.14700
F963        F  0.42689508  0.90641426  0.66237154    -0.12600
F964        F  0.44780178  0.04646098  0.64720712    -0.13100
F965        F  0.49014014  0.93445152  0.67009005    -0.15400
F966        F  0.38490004  0.01788473  0.63903198    -0.14000
F967        F  0.34288646  0.97651771  0.67517924    -0.14000
F968        F  0.33926036  0.88176498  0.59912722    -0.15400
C969        C  0.70640170  0.13074573  0.55520882     0.14700
C970        C  0.73252604  0.10716053  0.54956689     0.01600
C971        C  0.73830992  0.07934795  0.56565738     0.16600
C972        C  0.71696872  0.07387445  0.58606810     0.26000
C973        C  0.68899165  0.09579022  0.59049757    -0.40300
C974        C  0.68481313  0.12504256  0.57537453     0.33100
C975        C  0.75140291  0.10983840  0.52582364     0.01700
F976        F  0.76380558  0.05660442  0.56097270    -0.12600
F977        F  0.65866845  0.14728672  0.57946188    -0.13100
C978        C  0.77081096  0.13958442  0.52001146     0.16600
C979        C  0.78534082  0.14352344  0.49661496     0.26000
C980        C  0.78066557  0.11774087  0.47830599    -0.40200
C981        C  0.76284620  0.08704221  0.48478987     0.33000
C982        C  0.74825666  0.08330583  0.50816000     0.14700
F983        F  0.77530007  0.16514139  0.53694864    -0.12600
F984        F  0.75796614  0.06113031  0.46819293    -0.13100
F985        F  0.80329617  0.17310277  0.49182433    -0.15400
F986        F  0.72938239  0.05437424  0.51309787    -0.14000
F987        F  0.70020020  0.15801953  0.54020361    -0.14000
F988        F  0.72198351  0.04549407  0.60024224    -0.15400
C989        C  0.73419734  0.83067392  0.59722959     0.14700
C990        C  0.69969509  0.83390601  0.60405710     0.01600
C991        C  0.67962760  0.80369070  0.60684455     0.16600
C992        C  0.69422895  0.77080708  0.60419704     0.26000
C993        C  0.72925183  0.76733910  0.59838106    -0.40300
C994        C  0.74883128  0.79777681  0.59430789     0.33100
C995        C  0.68496572  0.86854841  0.60955738     0.01700
F996        F  0.64614571  0.80600657  0.61329045    -0.12600
F997        F  0.78267764  0.79586688  0.58892001    -0.13100
C998        C  0.65728787  0.88099894  0.59586765     0.16600
C999        C  0.64184909  0.91238720  0.60214714     0.26000
C1000       C  0.65336665  0.93189868  0.62252536    -0.40200
C1001       C  0.68201041  0.92014575  0.63566676     0.33000
C1002       C  0.69759597  0.88868587  0.62924371     0.14700
F1003       F  0.64522052  0.86277391  0.57629155    -0.12600
F1004       F  0.69416490  0.93834424  0.65523078    -0.13100
F1005       F  0.61580623  0.92401211  0.58797181    -0.15400
F1006       F  0.72427766  0.87717545  0.64281843    -0.14000
F1007       F  0.75391586  0.85949586  0.59386881    -0.14000
F1008       F  0.67416524  0.74231922  0.60793308    -0.15400
C1009       C  0.65743901  0.00340919  0.81899577     0.14700
C1010       C  0.63334924  0.99163835  0.80154989     0.01600
C1011       C  0.61508654  0.96065812  0.80626252     0.16600
C1012       C  0.62226244  0.94081621  0.82711364     0.26000
C1013       C  0.64811453  0.95121446  0.84355614    -0.40300
C1014       C  0.66502148  0.98316724  0.83967591     0.33100
C1015       C  0.62894377  0.00978767  0.77758125     0.01700
F1016       F  0.59225402  0.94806883  0.78960753    -0.12600
F1017       F  0.69039782  0.99366834  0.85510295    -0.13100
C1018       C  0.65651944  0.01314451  0.76110410     0.16600
C1019       C  0.65150272  0.02617403  0.73733516     0.26000
C1020       C  0.61861599  0.03594934  0.72931917    -0.40200
C1021       C  0.59134170  0.03393760  0.74640134     0.33000
C1022       C  0.59651475  0.02101154  0.77010921     0.14700
F1023       F  0.68806419  0.00182225  0.76750404    -0.12600
F1024       F  0.55905957  0.04299559  0.74000197    -0.13100
F1025       F  0.67872380  0.02779979  0.72190881    -0.15400
F1026       F  0.56944445  0.01851824  0.78563880    -0.14000
F1027       F  0.67458585  0.03382174  0.81548706    -0.14000
F1028       F  0.60636127  0.90957129  0.82992988    -0.15400
C1029       C  0.48425411  0.77671262  0.36827859     0.14700
C1030       C  0.49962422  0.76622035  0.34618825     0.01600
C1031       C  0.49550517  0.78720028  0.32534481     0.16600
C1032       C  0.47720799  0.81839066  0.32670965     0.26000
C1033       C  0.46227540  0.82937384  0.34899730    -0.40300
C1034       C  0.46580247  0.80770592  0.36969157     0.33100
C1035       C  0.51939161  0.73317037  0.34495824     0.01700
F1036       F  0.50988632  0.77786141  0.30368280    -0.12600
F1037       F  0.45186588  0.81660804  0.39159272    -0.13100
C1038       C  0.50974822  0.70653395  0.32851987     0.16600
C1039       C  0.52641449  0.67442385  0.32881088     0.26000
C1040       C  0.55350716  0.66844362  0.34515566    -0.40200
C1041       C  0.56410253  0.69539125  0.36096157     0.33000
C1042       C  0.54715515  0.72740856  0.36092847     0.14700
F1043       F  0.48315511  0.71104530  0.31287189    -0.12600
F1044       F  0.58986963  0.69016926  0.37720583    -0.13100
F1045       F  0.51560548  0.64877507  0.31344570    -0.15400
F1046       F  0.55763243  0.75271250  0.37670534    -0.14000
F1047       F  0.48671537  0.75661307  0.38858861    -0.14000
F1048       F  0.47436512  0.83783990  0.30611831    -0.15400
C1049       C  0.20854540  0.89565085  0.47933701     0.14700
C1050       C  0.24314940  0.90481483  0.47541195     0.01600
C1051       C  0.26374698  0.91258284  0.49588176     0.16600
C1052       C  0.25103721  0.90852145  0.51971197     0.26000
C1053       C  0.21713256  0.89702323  0.52382975    -0.40300
C1054       C  0.19556976  0.89196760  0.50339298     0.33100
C1055       C  0.25946005  0.90269281  0.45062001     0.01700
F1056       F  0.29690448  0.92261143  0.49275610    -0.12600
F1057       F  0.16283988  0.88079575  0.50664948    -0.13100
C1058       C  0.25190446  0.92633137  0.43178950     0.16600
C1059       C  0.27182381  0.92729266  0.41020320     0.26000
C1060       C  0.29968498  0.90457669  0.40710176    -0.40200
C1061       C  0.30525719  0.87926226  0.42523060     0.33000
C1062       C  0.28556491  0.87847119  0.44666179     0.14700
F1063       F  0.22696230  0.95016503  0.43504232    -0.12600
F1064       F  0.33129511  0.85640182  0.42292632    -0.13100
F1065       F  0.26575514  0.95246621  0.39344415    -0.15400
F1066       F  0.29321098  0.85497562  0.46427481    -0.14000
F1067       F  0.18800935  0.88796133  0.45995765    -0.14000
F1068       F  0.27249194  0.91443784  0.53891763    -0.15400
C1069       C  0.57946480  0.00057924  0.34051014     0.14700
C1070       C  0.58520095  0.03521123  0.34769317     0.01600
C1071       C  0.55712863  0.05756514  0.34967005     0.16600
C1072       C  0.52383930  0.04529207  0.34549344     0.26000
C1073       C  0.51772520  0.01010032  0.33960550    -0.40300
C1074       C  0.54607012  0.98812597  0.33641152     0.33100
C1075       C  0.62017548  0.04851008  0.35337608     0.01700
F1076       F  0.56183390  0.09110860  0.35674864    -0.12600
F1077       F  0.54148958  0.95408741  0.33063587    -0.13100
C1078       C  0.63329535  0.07711683  0.34048275     0.16600
C1079       C  0.66414847  0.09283543  0.34756140     0.26000
C1080       C  0.68282632  0.08028697  0.36779165    -0.40200
C1081       C  0.67048031  0.05050452  0.38000566     0.33000
C1082       C  0.63938749  0.03476086  0.37284081     0.14700
F1083       F  0.61584210  0.09018180  0.32111515    -0.12600
F1084       F  0.68754925  0.03763701  0.39958854    -0.13100
F1085       F  0.67567127  0.12052561  0.33448979    -0.15400
F1086       F  0.62724931  0.00710073  0.38565509    -0.14000
F1087       F  0.60617038  0.97864650  0.33780990    -0.14000
F1088       F  0.49751046  0.06777094  0.34801918    -0.15400
C1089       C  0.47337932  0.95733245  0.48305646     0.14700
C1090       C  0.46913156  0.99131889  0.49203764     0.01600
C1091       C  0.45262721  0.01582189  0.47735225     0.16600
C1092       C  0.44256765  0.00738129  0.45357720     0.26000
C1093       C  0.44757030  0.97366701  0.44417367    -0.40300
C1094       C  0.46253274  0.94850749  0.45934070     0.33100
C1095       C  0.48474517  0.00236536  0.51558181     0.01700
F1096       F  0.44646363  0.04825002  0.48601403    -0.12600
F1097       F  0.46783259  0.91576487  0.45097882    -0.13100
C1098       C  0.50761073  0.03082667  0.51602880     0.16600
C1099       C  0.52422150  0.04048979  0.53766891     0.26000
C1100       C  0.51895822  0.02137059  0.55925275    -0.40200
C1101       C  0.49506869  0.99357850  0.55903248     0.33000
C1102       C  0.47801859  0.98428726  0.53739405     0.14700
F1103       F  0.51509761  0.04844887  0.49515963    -0.12600
F1104       F  0.48813123  0.97534050  0.57974995    -0.13100
F1105       F  0.54671573  0.06757423  0.53710844    -0.15400
F1106       F  0.45497290  0.95764075  0.53775522    -0.14000
F1107       F  0.48924095  0.93304019  0.49685330    -0.14000
F1108       F  0.42766518  0.03240782  0.43986445    -0.15400
C1109       C  0.54590339  0.23280588  0.09803355     0.14700
C1110       C  0.51788584  0.25002550  0.08790656     0.01600
C1111       C  0.52240884  0.28453749  0.07993957     0.16600
C1112       C  0.55413042  0.30188450  0.08288153     0.26000
C1113       C  0.58186280  0.28520100  0.09430189    -0.40300
C1114       C  0.57738343  0.24994758  0.10114031     0.33100
C1115       C  0.48337839  0.23297257  0.08811445     0.01700
F1116       F  0.49584843  0.30161515  0.06963445    -0.12600
F1117       F  0.60335497  0.23175972  0.11129062    -0.13100
C1118       C  0.45814084  0.24543938  0.10402311     0.16600
C1119       C  0.42633246  0.22858610  0.10593793     0.26000
C1120       C  0.41870149  0.19842523  0.09198742    -0.40200
C1121       C  0.44412328  0.18592113  0.07592397     0.33000
C1122       C  0.47618998  0.20294689  0.07412061     0.14700
F1123       F  0.46480342  0.27342600  0.11853110    -0.12600
F1124       F  0.43785111  0.15763510  0.06164702    -0.13100
F1125       F  0.40330100  0.24152158  0.12210969    -0.15400
F1126       F  0.50023629  0.19021354  0.05864894    -0.14000
F1127       F  0.54235488  0.19963740  0.10606492    -0.14000
F1128       F  0.55730712  0.33517428  0.07508280    -0.15400
C1129       C  0.22755788  0.31503756  0.08367893     0.14700
C1130       C  0.19644490  0.31647522  0.09647221     0.01600
C1131       C  0.18067754  0.28561226  0.10440397     0.16600
C1132       C  0.19683416  0.25378850  0.10087858     0.26000
C1133       C  0.22887145  0.25242322  0.08910645    -0.40300
C1134       C  0.24361848  0.28325080  0.07994653     0.33100
C1135       C  0.18147673  0.35033587  0.10270243     0.01700
F1136       F  0.15011593  0.28650883  0.11623236    -0.12600
F1137       F  0.27417779  0.28273374  0.06810345    -0.13100
C1138       C  0.17082525  0.37270399  0.08405769     0.16600
C1139       C  0.15782529  0.40524584  0.08991791     0.26000
C1140       C  0.15518164  0.41592134  0.11455620    -0.40200
C1141       C  0.16560957  0.39342417  0.13326400     0.33000
C1142       C  0.17882494  0.36084675  0.12734257     0.14700
F1143       F  0.17260884  0.36280152  0.06018167    -0.12600
F1144       F  0.16402028  0.40339901  0.15712930    -0.13100
F1145       F  0.14690270  0.42600045  0.07147826    -0.15400
F1146       F  0.18987377  0.33985799  0.14559109    -0.14000
F1147       F  0.24327233  0.34464924  0.07595152    -0.14000
F1148       F  0.18236102  0.22475971  0.11062668    -0.15400
C1149       C  0.33614203  0.99064655  0.23630420     0.14700
C1150       C  0.36207319  0.98597753  0.21870541     0.01600
C1151       C  0.39077692  0.96631848  0.22495284     0.16600
C1152       C  0.39405081  0.95230616  0.24849368     0.26000
C1153       C  0.36900068  0.95843789  0.26666128    -0.40300
C1154       C  0.33956277  0.97710755  0.26001882     0.33100
C1155       C  0.35966408  0.00256670  0.19414799     0.01700
F1156       F  0.41601764  0.96111840  0.20827780    -0.12600
F1157       F  0.31492085  0.98415232  0.27681764    -0.13100
C1158       C  0.38387914  0.02782668  0.18682194     0.16600
C1159       C  0.37929848  0.04646902  0.16500228     0.26000
C1160       C  0.35064247  0.04000408  0.15001988    -0.40200
C1161       C  0.32754636  0.01334500  0.15671748     0.33000
C1162       C  0.33197121  0.99487526  0.17855971     0.14700
F1163       F  0.41027116  0.03665117  0.20188502    -0.12600
F1164       F  0.29863018  0.00776840  0.14338182    -0.13100
F1165       F  0.40062500  0.07357701  0.15997770    -0.15400
F1166       F  0.30809812  0.97082063  0.18521267    -0.14000
F1167       F  0.30828213  0.00998610  0.23094564    -0.14000
F1168       F  0.42228119  0.93339855  0.25360946    -0.15400
C1169       C  0.14781918  0.04680238  0.15743578     0.14700
C1170       C  0.12467935  0.03468852  0.13970380     0.01600
C1171       C  0.13240472  0.03960140  0.11473132     0.16600
C1172       C  0.16213884  0.05797051  0.10772788     0.26000
C1173       C  0.18475462  0.07147497  0.12562890    -0.40300
C1174       C  0.17742843  0.06489694  0.15059416     0.33100
C1175       C  0.09123416  0.01987500  0.14759682     0.01700
F1176       F  0.11053555  0.02773471  0.09717771    -0.12600
F1177       F  0.19819004  0.07712005  0.16870016    -0.13100
C1178       C  0.06783365  0.04099224  0.16013289     0.16600
C1179       C  0.03528623  0.02827016  0.16631332     0.26000
C1180       C  0.02577022  0.99386592  0.16060054    -0.40200
C1181       C  0.05013123  0.97201113  0.14958965     0.33000
C1182       C  0.08246697  0.98504006  0.14290533     0.14700
F1183       F  0.07612168  0.07445892  0.16558066    -0.12600
F1184       F  0.04184788  0.93868108  0.14373500    -0.13100
F1185       F  0.01271150  0.04989656  0.17729795    -0.15400
F1186       F  0.10504148  0.96378249  0.13157351    -0.14000
F1187       F  0.14126965  0.04171295  0.18161364    -0.14000
F1188       F  0.16858295  0.06269772  0.08350397    -0.15400
C1189       C  0.26826460  0.08298263  0.97949765     0.14700
C1190       C  0.26687343  0.11373467  0.96543224     0.01600
C1191       C  0.27978129  0.14466118  0.97596702     0.16600
C1192       C  0.29119613  0.14538560  0.00036453     0.26000
C1193       C  0.29074912  0.11512694  0.01472320    -0.40300
C1194       C  0.27998430  0.08377076  0.00390255     0.33100
C1195       C  0.24852006  0.11428742  0.94117846     0.01700
F1196       F  0.28001952  0.17463292  0.96294970    -0.12600
F1197       F  0.27797531  0.05449639  0.01763126    -0.13100
C1198       C  0.22171309  0.13793570  0.93712359     0.16600
C1199       C  0.20059657  0.13498196  0.91634809     0.26000
C1200       C  0.20518232  0.10797382  0.89936833    -0.40200
C1201       C  0.23341915  0.08595264  0.90239300     0.33000
C1202       C  0.25510882  0.08932362  0.92287055     0.14700
F1203       F  0.21362776  0.16182303  0.95446838    -0.12600
F1204       F  0.23791256  0.05887244  0.88676056    -0.13100
F1205       F  0.17304587  0.15597236  0.91437861    -0.15400
F1206       F  0.28138856  0.06685153  0.92546953    -0.14000
F1207       F  0.25571666  0.05259538  0.97037450    -0.14000
F1208       F  0.30080382  0.17622585  0.01050613    -0.15400
C1209       C  0.95079686  0.25999838  0.41019980     0.14700
C1210       C  0.97777720  0.25053770  0.39456720     0.01600
C1211       C  0.97392074  0.22061175  0.37993537     0.16600
C1212       C  0.94341783  0.20112830  0.38031617     0.26000
C1213       C  0.91600288  0.21084255  0.39560799    -0.40300
C1214       C  0.92032620  0.24031423  0.41081729     0.33100
C1215       C  0.00981556  0.27186486  0.39305880     0.01700
F1216       F  0.99988065  0.21016894  0.36518803    -0.12600
F1217       F  0.89443464  0.25122899  0.42543938    -0.13100
C1218       C  0.03042978  0.27765271  0.41391016     0.16600
C1219       C  0.06216384  0.29489731  0.41182622     0.26000
C1220       C  0.07391508  0.30630937  0.38886282    -0.40200
C1221       C  0.05286054  0.30160886  0.36819615     0.33000
C1222       C  0.02096224  0.28493896  0.37031476     0.14700
F1223       F  0.02070988  0.26494719  0.43604536    -0.12600
F1224       F  0.06347624  0.31278127  0.34583930    -0.13100
F1225       F  0.08241864  0.29842445  0.43192647    -0.15400
F1226       F  0.00108993  0.28109032  0.35003551    -0.14000
F1227       F  0.95337607  0.28917325  0.42413945    -0.14000
F1228       F  0.94076459  0.17274832  0.36559009    -0.15400
C1229       C  0.12961622  0.54183617  0.26316197     0.14700
C1230       C  0.14252798  0.50931873  0.26998238     0.01600
C1231       C  0.15382413  0.48652786  0.25164526     0.16600
C1232       C  0.15119468  0.49542012  0.22689944     0.26000
C1233       C  0.13750417  0.52757441  0.21980321    -0.40300
C1234       C  0.12707408  0.55092360  0.23820133     0.33100
C1235       C  0.14244938  0.49729620  0.29585566     0.01700
F1236       F  0.16613595  0.45485957  0.25774246    -0.12600
F1237       F  0.11186538  0.58114493  0.23199065    -0.13100
C1238       C  0.11735826  0.47327398  0.30360785     0.16600
C1239       C  0.12213216  0.45383765  0.32505119     0.26000
C1240       C  0.15194618  0.45846936  0.33918049    -0.40200
C1241       C  0.17514796  0.48513560  0.33276930     0.33000
C1242       C  0.17065660  0.50416804  0.31114999     0.14700
F1243       F  0.08992804  0.46620593  0.28906748    -0.12600
F1244       F  0.20433440  0.48979830  0.34596907    -0.13100
F1245       F  0.09992243  0.42751303  0.33019776    -0.15400
F1246       F  0.19561360  0.52667604  0.30391729    -0.14000
F1247       F  0.11785046  0.56391900  0.28058137    -0.14000
F1248       F  0.16065192  0.47179132  0.20970869    -0.15400
C1249       C  0.29741073  0.18760431  0.38611539     0.14700
C1250       C  0.27678397  0.15773699  0.38340139     0.01600
C1251       C  0.24099198  0.16113714  0.38325457     0.16600
C1252       C  0.22612096  0.19398899  0.38503767     0.26000
C1253       C  0.24678518  0.22401284  0.38751402    -0.40300
C1254       C  0.28263211  0.22037886  0.38815254     0.33100
C1255       C  0.29296670  0.12353798  0.37924286     0.01700
F1256       F  0.22044718  0.13262501  0.38123444    -0.12600
F1257       F  0.30356251  0.24872123  0.38911855    -0.13100
C1258       C  0.31641516  0.11045642  0.39632273     0.16600
C1259       C  0.33454562  0.08021906  0.39117836     0.26000
C1260       C  0.32957844  0.06236578  0.36887676    -0.40200
C1261       C  0.30497886  0.07455123  0.35223840     0.33000
C1262       C  0.28700587  0.10505781  0.35732699     0.14700
F1263       F  0.32195349  0.12716340  0.41794447    -0.12600
F1264       F  0.29948697  0.05789775  0.33060226    -0.13100
F1265       F  0.35676541  0.06810747  0.40821182    -0.15400
F1266       F  0.26495992  0.11749155  0.34031461    -0.14000
F1267       F  0.33206405  0.18520253  0.38555480    -0.14000
F1268       F  0.19149623  0.19642358  0.38405746    -0.15400
C1269       C  0.25868791  0.29415433  0.25709538     0.14700
C1270       C  0.23882099  0.26685047  0.24735206     0.01600
C1271       C  0.20735947  0.25830021  0.25835454     0.16600
C1272       C  0.19673841  0.27561855  0.27952459     0.26000
C1273       C  0.21698655  0.30256761  0.28969850    -0.40300
C1274       C  0.24764957  0.31226726  0.27775125     0.33100
C1275       C  0.25172357  0.24676932  0.22622148     0.01700
F1276       F  0.18698953  0.23292973  0.24871683    -0.12600
F1277       F  0.26803984  0.33817542  0.28662899    -0.13100
C1278       C  0.25517279  0.21057530  0.22778836     0.16600
C1279       C  0.26846110  0.19181794  0.20809335     0.26000
C1280       C  0.27874204  0.20897475  0.18648299    -0.40200
C1281       C  0.27595653  0.24535580  0.18523652     0.33000
C1282       C  0.26210183  0.26392314  0.20476698     0.14700
F1283       F  0.24594986  0.19337194  0.24848811    -0.12600
F1284       F  0.28524380  0.26298791  0.16473960    -0.13100
F1285       F  0.27111242  0.15682612  0.21022404    -0.15400
F1286       F  0.25789627  0.29869602  0.20243077    -0.14000
F1287       F  0.28968744  0.30225532  0.24726035    -0.14000
F1288       F  0.16693492  0.26548418  0.29025722    -0.15400
C1289       C  0.42266837  0.48191381  0.35434392     0.14700
C1290       C  0.42157103  0.44560706  0.35583009     0.01600
C1291       C  0.45156520  0.42673128  0.35134574     0.16600
C1292       C  0.48234754  0.44424291  0.34600655     0.26000
C1293       C  0.48365738  0.48078330  0.34518795    -0.40300
C1294       C  0.45307872  0.49936313  0.34872165     0.33100
C1295       C  0.38837089  0.42783898  0.36033028     0.01700
F1296       F  0.45096736  0.39153646  0.35209416    -0.12600
F1297       F  0.45266293  0.53448019  0.34712176    -0.13100
C1298       C  0.36103353  0.43442010  0.34439259     0.16600
C1299       C  0.32878261  0.42031557  0.34893515     0.26000
C1300       C  0.32275134  0.39888424  0.36936470    -0.40200
C1301       C  0.35042605  0.39179618  0.38533101     0.33000
C1302       C  0.38294914  0.40632558  0.38072200     0.14700
F1303       F  0.36566974  0.45468699  0.32435626    -0.12600
F1304       F  0.34595364  0.37140332  0.40528454    -0.13100
F1305       F  0.30344128  0.42794193  0.33276283    -0.15400
F1306       F  0.40890384  0.40007387  0.39666256    -0.14000
F1307       F  0.39411374  0.50077828  0.35881382    -0.14000
F1308       F  0.51110524  0.42528287  0.34259113    -0.15400
C1309       C  0.23580865  0.41990882  0.50030538     0.14700
C1310       C  0.23469035  0.39328419  0.51805353     0.01600
C1311       C  0.21875010  0.36151193  0.51162783     0.16600
C1312       C  0.20730534  0.35540188  0.48757832     0.26000
C1313       C  0.21002593  0.38139629  0.46964631    -0.40300
C1314       C  0.22312419  0.41412607  0.47647432     0.33100
C1315       C  0.25337498  0.39718961  0.54202928     0.01700
F1316       F  0.21535149  0.33582784  0.52845955    -0.12600
F1317       F  0.22621506  0.43964237  0.45949138    -0.13100
C1318       C  0.24927935  0.42668798  0.55712667     0.16600
C1319       C  0.27035985  0.43210613  0.57777075     0.26000
C1320       C  0.29614111  0.40829849  0.58369916    -0.40200
C1321       C  0.29844318  0.37760260  0.56973874     0.33000
C1322       C  0.27758802  0.37222647  0.54911507     0.14700
F1323       F  0.22569352  0.45097758  0.55141762    -0.12600
F1324       F  0.32220564  0.35341928  0.57537943    -0.13100
F1325       F  0.26739875  0.46203338  0.59076320    -0.15400
F1326       F  0.28298648  0.34367628  0.53503067    -0.14000
F1327       F  0.25155965  0.45068245  0.50536450    -0.14000
F1328       F  0.19466529  0.32354559  0.48152346    -0.15400
loop_ 
_geom_bond_atom_site_label_1 
_geom_bond_atom_site_label_2 
_geom_bond_distance 
_geom_bond_site_symmetry_2 
_ccdc_geom_bond_type 
Zn1           O5   1.949       .  S
Zn1           O6   2.006       .  S
Zn1          O10   2.013       .  S
Zn1          O17   2.010       .  S
Zn2           O5   1.973       .  S
Zn2           O7   2.088       .  S
Zn2           O9   2.064       .  S
Zn2          O13   2.099       .  S
Zn3           O5   1.955       .  S
Zn3           O8   2.025       .  S
Zn3          O11   2.020       .  S
Zn3          O14   2.050       .  S
Zn4           O5   1.915       .  S
Zn4          O12   1.960       .  S
Zn4          O15   1.957       .  S
Zn4          O16   1.989       .  S
O6           C18   1.273       .  A
O7           C19   1.285       .  A
O8           C20   1.275       .  A
O9           C18   1.279       .  A
O10          C20   1.274       .  A
O11          C19   1.277       .  A
O12          C21   1.274       .  A
O13          C22   1.283       .  A
O14          C21   1.267       .  A
O15          C22   1.267       .  A
O16          C23   1.269       .  A
O17          C23   1.271       .  A
C18        C1220   1.478       .  S
C19        C1313   1.485       .  S
C20        C1253   1.484       .  S
C21        C1300   1.489       .  S
C22        C1240   1.477       .  S
C23        C1273   1.483       .  S
Zn24         O28   1.917       .  S
Zn24         O29   1.936       .  S
Zn24         O33   1.985       .  S
Zn24         O40   1.977       .  S
Zn25         O28   1.974       .  S
Zn25         O30   2.108       .  S
Zn25         O32   2.121       .  S
Zn25         O36   2.102       .  S
Zn26         O28   1.943       .  S
Zn26         O31   2.061       .  S
Zn26         O34   1.991       .  S
Zn26         O37   2.027       .  S
Zn27         O28   1.937       .  S
Zn27         O35   1.994       .  S
Zn27         O38   1.997       .  S
Zn27         O39   2.008       .  S
O29          C41   1.266       .  A
O30          C42   1.288       .  A
O31          C43   1.276       .  A
O32          C41   1.288       .  A
O33          C43   1.267       .  A
O34          C42   1.274       .  A
O35          C44   1.271       .  A
O36          C45   1.283       .  A
O37          C44   1.275       .  A
O38          C45   1.271       .  A
O39          C46   1.271       .  A
O40          C46   1.268       .  A
C41        C1160   1.474       .  S
C42        C1193   1.482       .  S
C43        C1173   1.494       .  S
C44        C1133   1.475       .  S
C45        C1120   1.503       .  S
C46        C1280   1.478       .  S
Zn47         O51   1.975       .  S
Zn47         O52   2.036   1_565  S
Zn47         O56   2.073       .  S
Zn47         O63   2.060       .  S
Zn48         O51   1.940       .  S
Zn48         O53   1.975       .  S
Zn48         O55   1.998   1_565  S
Zn48         O59   1.997   1_565  S
Zn49         O51   1.945       .  S
Zn49         O54   2.002       .  S
Zn49         O57   2.023       .  S
Zn49         O60   2.038       .  S
Zn50         O51   1.943       .  S
Zn50         O58   2.048       .  S
Zn50         O61   2.035       .  S
Zn50         O62   2.013       .  S
O52          C64   1.272       .  A
O53          C65   1.268       .  A
O54          C66   1.275       .  A
O55          C64   1.271       .  A
O56          C66   1.282       .  A
O57          C65   1.273       .  A
O58          C67   1.277       .  A
O59          C68   1.272   1_545  A
O60          C67   1.277       .  A
O61          C68   1.275       .  A
O62          C69   1.277       .  A
O63          C69   1.284       .  A
C64        C1260   1.480       .  S
C65        C1093   1.480       .  S
C66        C1060   1.496       .  S
C67        C1033   1.503       .  S
C68        C1073   1.487   1_565  S
C69        C1153   1.494       .  S
Zn70         O74   1.933       .  S
Zn70         O75   2.029       .  S
Zn70         O79   2.027       .  S
Zn70         O86   2.018       .  S
Zn71         O74   1.937       .  S
Zn71         O76   1.983       .  S
Zn71         O78   1.997   1_545  S
Zn71         O82   1.991   1_545  S
Zn72         O74   1.935       .  S
Zn72         O77   2.023       .  S
Zn72         O80   2.029       .  S
Zn72         O83   2.005       .  S
Zn73         O74   1.966       .  S
Zn73         O81   2.082       .  S
Zn73         O84   2.057   1_545  S
Zn73         O85   2.081       .  S
O75          C87   1.274       .  A
O76          C88   1.269       .  A
O77          C89   1.274       .  A
O78          C87   1.271   1_565  A
O79          C89   1.275       .  A
O80          C88   1.275       .  A
O81          C90   1.285       .  A
O82          C91   1.271       .  A
O83          C90   1.276       .  A
O84          C91   1.276       .  A
O85          C92   1.286       .  A
O86          C92   1.278       .  A
C87         C960   1.479   1_545  S
C88        C1100   1.480       .  S
C89         C933   1.491       .  S
C90         C973   1.490       .  S
C91        C1000   1.488       .  S
C92        C1020   1.504       .  S
Zn93         O97   1.952       .  S
Zn93         O98   1.999   1_565  S
Zn93        O102   1.998   1_565  S
Zn93        O109   1.985       .  S
Zn94         O97   1.933       .  S
Zn94         O99   2.058       .  S
Zn94        O101   2.044       .  S
Zn94        O105   2.044       .  S
Zn95         O97   1.950       .  S
Zn95        O100   2.018   1_565  S
Zn95        O103   2.062       .  S
Zn95        O106   2.051       .  S
Zn96         O97   1.941       .  S
Zn96        O104   2.026       .  S
Zn96        O107   2.037       .  S
Zn96        O108   2.026       .  S
O98         C110   1.270   1_545  A
O99         C111   1.283       .  A
O100        C112   1.271       .  A
O101        C110   1.275       .  A
O102        C112   1.269       .  A
O103        C111   1.284       .  A
O104        C113   1.277       .  A
O105        C114   1.279       .  A
O106        C113   1.280       .  A
O107        C114   1.277       .  A
O108        C115   1.275       .  A
O109        C115   1.270       .  A
C110       C1180   1.482   1_655  S
C111        C893   1.504       .  S
C112        C873   1.467       .  S
C113        C853   1.492       .  S
C114        C840   1.502       .  S
C115        C913   1.485       .  S
Zn116       O120   1.961       .  S
Zn116       O121   1.998       .  S
Zn116       O125   2.010       .  S
Zn116       O132   2.036       .  S
Zn117       O120   1.960       .  S
Zn117       O122   2.003       .  S
Zn117       O124   2.030   1_545  S
Zn117       O128   2.048   1_545  S
Zn118       O120   1.990       .  S
Zn118       O123   2.101       .  S
Zn118       O126   2.102       .  S
Zn118       O129   2.125       .  S
Zn119       O120   1.935       .  S
Zn119       O127   1.949       .  S
Zn119       O130   1.984   1_545  S
Zn119       O131   1.972       .  S
O121        C133   1.270       .  A
O122        C134   1.274       .  A
O123        C135   1.284       .  A
O124        C133   1.275   1_565  A
O125        C135   1.274       .  A
O126        C134   1.286       .  A
O127        C136   1.265       .  A
O128        C137   1.275       .  A
O129        C136   1.287       .  A
O130        C137   1.267       .  A
O131        C138   1.267       .  A
O132        C138   1.275       .  A
C133        C773   1.481   1_445  S
C134        C813   1.484       .  S
C135        C753   1.493       .  S
C136       C1200   1.480       .  S
C137        C793   1.493       .  S
C138        C920   1.481       .  S
Zn139       O143   1.951       .  S
Zn139       O144   2.032       .  S
Zn139       O148   2.034       .  S
Zn139       O155   2.014       .  S
Zn140       O143   1.944       .  S
Zn140       O145   2.045       .  S
Zn140       O147   2.043       .  S
Zn140       O151   2.027       .  S
Zn141       O143   1.927       .  S
Zn141       O146   1.941       .  S
Zn141       O149   1.991       .  S
Zn141       O152   1.982       .  S
Zn142       O143   1.960       .  S
Zn142       O150   2.071       .  S
Zn142       O153   2.076       .  S
Zn142       O154   2.080       .  S
O144        C156   1.275       .  A
O145        C157   1.274       .  A
O146        C158   1.265       .  A
O147        C156   1.277       .  A
O148        C158   1.275       .  A
O149        C157   1.269       .  A
O150        C159   1.276       .  A
O151        C160   1.280       .  A
O152        C159   1.267       .  A
O153        C160   1.287       .  A
O154        C161   1.285       .  A
O155        C161   1.277       .  A
C156       C1213   1.495       .  S
C157        C713   1.483       .  S
C158        C740   1.475       .  S
C159       C1080   1.491       .  S
C160        C980   1.502       .  S
C161        C900   1.492       .  S
Zn162       O166   1.991       .  S
Zn162       O167   2.109       .  S
Zn162       O171   2.108       .  S
Zn162       O178   2.127       .  S
Zn163       O166   1.945       .  S
Zn163       O168   1.978       .  S
Zn163       O170   1.978       .  S
Zn163       O174   1.999       .  S
Zn164       O166   1.952       .  S
Zn164       O169   1.990       .  S
Zn164       O172   2.016       .  S
Zn164       O175   2.037       .  S
Zn165       O166   1.926       .  S
Zn165       O173   1.980       .  S
Zn165       O176   1.980       .  S
Zn165       O177   1.949       .  S
O167        C179   1.284       .  A
O168        C180   1.268       .  A
O169        C181   1.274       .  A
O170        C179   1.270       .  A
O171        C181   1.287       .  A
O172        C180   1.273       .  A
O173        C182   1.267       .  A
O174        C183   1.270       .  A
O175        C182   1.272       .  A
O176        C183   1.268       .  A
O177        C184   1.267       .  A
O178        C184   1.288       .  A
C179       C1113   1.504       .  S
C180        C880   1.481       .  S
C181        C693   1.505       .  S
C182        C680   1.490       .  S
C183        C733   1.472       .  S
C184        C660   1.481       .  S
Zn185       O189   1.950       .  S
Zn185       O190   2.038       .  S
Zn185       O194   2.061       .  S
Zn185       O201   2.032       .  S
Zn186       O189   1.961       .  S
Zn186       O191   2.048       .  S
Zn186       O193   2.036       .  S
Zn186       O197   2.019       .  S
Zn187       O189   1.937       .  S
Zn187       O192   2.015       .  S
Zn187       O195   1.959       .  S
Zn187       O198   1.994       .  S
Zn188       O189   1.978       .  S
Zn188       O196   2.031       .  S
Zn188       O199   2.072       .  S
Zn188       O200   2.074       .  S
O190        C202   1.278       .  A
O191        C203   1.275       .  A
O192        C204   1.273       .  A
O193        C202   1.277       .  A
O194        C204   1.278       .  A
O195        C203   1.267       .  A
O196        C205   1.272       .  A
O197        C206   1.276       .  A
O198        C205   1.270       .  A
O199        C206   1.282       .  A
O200        C207   1.285       .  A
O201        C207   1.279       .  A
C202        C560   1.499       .  S
C203        C593   1.475       .  S
C204        C993   1.494       .  S
C205        C613   1.477       .  S
C206        C573   1.496       .  S
C207        C633   1.501       .  S
Zn208       O212   1.961       .  S
Zn208       O213   2.016       .  S
Zn208       O217   2.001       .  S
Zn208       O224   2.024       .  S
Zn209       O212   1.988       .  S
Zn209       O214   2.100       .  S
Zn209       O216   2.081       .  S
Zn209       O220   2.099       .  S
Zn210       O212   1.961       .  S
Zn210       O215   2.013       .  S
Zn210       O218   1.997       .  S
Zn210       O221   2.028       .  S
Zn211       O212   1.954       .  S
Zn211       O219   1.998       .  S
Zn211       O222   1.982       .  S
Zn211       O223   2.005       .  S
O213        C225   1.275       .  A
O214        C226   1.284       .  A
O215        C227   1.272       .  A
O216        C225   1.281       .  A
O217        C227   1.270       .  A
O218        C226   1.273       .  A
O219        C228   1.270       .  A
O220        C229   1.284       .  A
O221        C228   1.272       .  A
O222        C229   1.270       .  A
O223        C230   1.270       .  A
O224        C230   1.274       .  A
C225        C520   1.496       .  S
C226        C860   1.482       .  S
C227        C540   1.474       .  S
C228        C780   1.481       .  S
C229       C1013   1.480       .  S
C230        C600   1.479       .  S
Zn231       O235   1.948       .  S
Zn231       O236   1.996       .  S
Zn231       O240   2.014       .  S
Zn231       O247   2.016       .  S
Zn232       O235   1.961       .  S
Zn232       O237   1.998       .  S
Zn232       O239   2.037       .  S
Zn232       O243   2.060       .  S
Zn233       O235   1.975       .  S
Zn233       O238   2.081       .  S
Zn233       O241   2.112       .  S
Zn233       O244   2.122       .  S
Zn234       O235   1.911       .  S
Zn234       O242   1.945       .  S
Zn234       O245   1.963       .  S
Zn234       O246   1.960       .  S
O236        C248   1.268       .  A
O237        C249   1.275       .  A
O238        C250   1.281       .  A
O239        C248   1.279       .  A
O240        C250   1.273       .  A
O241        C249   1.289       .  A
O242        C251   1.264       .  A
O243        C252   1.275       .  A
O244        C251   1.286       .  A
O245        C252   1.265       .  A
O246        C253   1.266       .  A
O247        C253   1.273       .  A
C248       C1293   1.485       .  S
C249        C653   1.484       .  S
C250       C1040   1.483       .  S
C251        C640   1.481       .  S
C252        C720   1.491       .  S
C253        C493   1.474       .  S
Zn254       O258   1.934       .  S
Zn254       O259   2.016       .  S
Zn254       O263   2.012       .  S
Zn254       O270   2.005       .  S
Zn255       O258   1.923       .  S
Zn255       O260   2.017       .  S
Zn255       O262   2.001       .  S
Zn255       O266   1.991       .  S
Zn256       O258   1.942       .  S
Zn256       O261   1.983       .  S
Zn256       O264   2.008       .  S
Zn256       O267   2.023       .  S
Zn257       O258   1.952       .  S
Zn257       O265   2.033       .  S
Zn257       O268   2.089       .  S
Zn257       O269   2.089       .  S
O259        C271   1.273       .  A
O260        C272   1.271       .  A
O261        C273   1.271       .  A
O262        C271   1.272       .  A
O263        C273   1.273       .  A
O264        C272   1.273       .  A
O265        C274   1.274       .  A
O266        C275   1.274       .  A
O267        C274   1.274       .  A
O268        C275   1.287       .  A
O269        C276   1.285       .  A
O270        C276   1.275       .  A
C271        C940   1.488       .  S
C272        C620   1.481       .  S
C273        C500   1.468       .  S
C274        C460   1.484       .  S
C275        C480   1.499       .  S
C276       C1320   1.491       .  S
Zn277       O281   1.989       .  S
Zn277       O282   2.100       .  S
Zn277       O286   2.124       .  S
Zn277       O293   2.122       .  S
Zn278       O281   1.955       .  S
Zn278       O283   1.996       .  S
Zn278       O285   1.998       .  S
Zn278       O289   2.030       .  S
Zn279       O281   1.957       .  S
Zn279       O284   1.996       .  S
Zn279       O287   2.043       .  S
Zn279       O290   2.026       .  S
Zn280       O281   1.930       .  S
Zn280       O288   1.991       .  S
Zn280       O291   1.979       .  S
Zn280       O292   1.961       .  S
O282        C294   1.284       .  A
O283        C295   1.271       .  A
O284        C296   1.274       .  A
O285        C294   1.273       .  A
O286        C296   1.289       .  A
O287        C295   1.276       .  A
O288        C297   1.268       .  A
O289        C298   1.273       .  A
O290        C297   1.272       .  A
O291        C298   1.269       .  A
O292        C299   1.267       .  A
O293        C299   1.286       .  A
C294        C553   1.490       .  S
C295        C453   1.494       .  S
C296       C1053   1.494       .  S
C297        C953   1.488       .  S
C298        C433   1.486       .  S
C299        C820   1.482       .  S
Zn300       O304   1.961       .  S
Zn300       O305   2.077       .  S
Zn300       O309   2.039       .  S
Zn300       O316   2.013       .  S
Zn301       O304   1.920       .  S
Zn301       O306   1.979       .  S
Zn301       O308   1.977       .  S
Zn301       O312   1.965       .  S
Zn302       O304   1.956       .  S
Zn302       O307   1.996       .  S
Zn302       O310   2.016       .  S
Zn302       O313   2.011       .  S
Zn303       O304   1.976       .  S
Zn303       O311   2.082       .  S
Zn303       O314   2.120       .  S
Zn303       O315   2.104       .  S
O305        C317   1.279       .  A
O306        C318   1.268       .  A
O307        C319   1.272       .  A
O308        C317   1.267       .  A
O309        C319   1.276       .  A
O310        C318   1.272       .  A
O311        C320   1.281       .  A
O312        C321   1.269       .  A
O313        C320   1.273       .  A
O314        C321   1.287       .  A
O315        C322   1.288       .  A
O316        C322   1.276       .  A
C317        C393   1.495       .  S
C318        C440   1.471       .  S
C319        C800   1.488       .  S
C320        C513   1.494       .  S
C321        C473   1.483       .  S
C322        C413   1.486       .  S
Zn323       O327   1.935       .  S
Zn323       O328   1.956       .  S
Zn323       O332   1.999       .  S
Zn323       O339   1.986       .  S
Zn324       O327   1.984       .  S
Zn324       O329   2.100       .  S
Zn324       O331   2.128       .  S
Zn324       O335   2.113       .  S
Zn325       O327   1.961       .  S
Zn325       O330   2.048       .  S
Zn325       O333   2.016       .  S
Zn325       O336   2.063       .  S
Zn326       O327   1.943       .  S
Zn326       O334   1.977       .  S
Zn326       O337   1.992       .  S
Zn326       O338   1.983       .  S
O328        C340   1.268       .  A
O329        C341   1.287       .  A
O330        C342   1.275       .  A
O331        C340   1.287       .  A
O332        C342   1.269       .  A
O333        C341   1.278       .  A
O334        C343   1.269       .  A
O335        C344   1.284       .  A
O336        C343   1.277       .  A
O337        C344   1.270       .  A
O338        C345   1.268       .  A
O339        C345   1.270       .  A
C340        C700   1.493       .  S
C341        C580   1.485       .  S
C342        C533   1.495       .  S
C343        C400   1.490   1_655  S
C344        C760   1.494       .  S
C345        C373   1.458       .  S
Zn346       O350   1.951       .  S
Zn346       O351   2.022       .  S
Zn346       O355   2.012       .  S
Zn346       O362   1.975       .  S
Zn347       O350   1.930       .  S
Zn347       O352   1.973       .  S
Zn347       O354   1.973       .  S
Zn347       O358   1.961       .  S
Zn348       O350   1.946       .  S
Zn348       O353   1.992       .  S
Zn348       O356   2.006       .  S
Zn348       O359   1.990       .  S
Zn349       O350   1.980       .  S
Zn349       O357   2.083       .  S
Zn349       O360   2.121       .  S
Zn349       O361   2.115       .  S
O351        C363   1.271       .  A
O352        C364   1.266       .  A
O353        C365   1.269       .  A
O354        C363   1.267       .  A
O355        C365   1.273       .  A
O356        C364   1.271       .  A
O357        C366   1.282       .  A
O358        C367   1.267       .  A
O359        C366   1.272       .  A
O360        C367   1.287       .  A
O361        C368   1.288       .  A
O362        C368   1.272       .  A
C363       C1140   1.471       .  S
C364        C380   1.480       .  S
C365        C673   1.482   1_455  S
C366        C833   1.496       .  S
C367        C420   1.482       .  S
C368       C1233   1.487       .  S
C369        C370   1.406   1_655  A
C369        C374   1.394       .  A
C369        F387   1.358   1_556  S
C370        C375   1.471   1_556  S
C370        C371   1.404       .  A
C371        C372   1.392   1_455  A
C371        F376   1.358       .  S
C372        C373   1.404       .  A
C372        F388   1.359   1_655  S
C373        C374   1.401       .  A
C374        F377   1.358       .  S
C375        C378   1.401       .  A
C375        C382   1.404       .  A
C378        C379   1.394       .  A
C378        F383   1.358   1_554  S
C379        C380   1.414       .  A
C379        F385   1.358       .  S
C380        C381   1.409       .  A
C381        C382   1.393       .  A
C381        F384   1.358   1_455  S
C382        F386   1.358   1_455  S
C389        C390   1.401       .  A
C389        C394   1.396       .  A
C389        F407   1.359       .  S
C390        C395   1.488       .  S
C390        C391   1.409       .  A
C391        C392   1.408       .  A
C391        F396   1.357       .  S
C392        C393   1.410       .  A
C392        F408   1.358       .  S
C393        C394   1.416       .  A
C394        F397   1.358       .  S
C395        C398   1.405       .  A
C395        C402   1.406       .  A
C398        C399   1.398       .  A
C398        F403   1.358       .  S
C399        C400   1.412       .  A
C399        F405   1.359       .  S
C400        C401   1.411       .  A
C401        C402   1.405       .  A
C401        F404   1.357   1_455  S
C402        F406   1.357       .  S
C409        C410   1.407       .  A
C409        C414   1.405   1_554  A
C409        F427   1.358       .  S
C410        C415   1.497       .  S
C410        C411   1.410       .  A
C411        C412   1.408   1_554  A
C411        F416   1.357       .  S
C412        C413   1.405       .  A
C412        F428   1.357       .  S
C413        C414   1.409       .  A
C414        F417   1.358       .  S
C415        C418   1.408       .  A
C415        C422   1.408       .  A
C418        C419   1.405       .  A
C418        F423   1.358       .  S
C419        C420   1.406       .  A
C419        F425   1.358       .  S
C420        C421   1.408       .  A
C421        C422   1.408       .  A
C421        F424   1.358       .  S
C422        F426   1.357       .  S
C429        C430   1.400       .  A
C429        C434   1.392       .  A
C429        F447   1.358       .  S
C430        C435   1.477       .  S
C430        C431   1.405       .  A
C431        C432   1.401       .  A
C431        F436   1.358       .  S
C432        C433   1.412       .  A
C432        F448   1.358       .  S
C433        C434   1.412       .  A
C434        F437   1.358       .  S
C435        C438   1.402       .  A
C435        C442   1.408       .  A
C438        C439   1.395       .  A
C438        F443   1.358       .  S
C439        C440   1.409       .  A
C439        F445   1.359       .  S
C440        C441   1.403       .  A
C441        C442   1.397       .  A
C441        F444   1.358       .  S
C442        F446   1.358       .  S
C449        C450   1.407       .  A
C449        C454   1.397       .  A
C449        F467   1.358       .  S
C450        C455   1.497       .  S
C450        C451   1.410       .  A
C451        C452   1.404       .  A
C451        F456   1.358       .  S
C452        C453   1.411       .  A
C452        F468   1.358       .  S
C453        C454   1.413       .  A
C454        F457   1.358       .  S
C455        C458   1.410       .  A
C455        C462   1.411       .  A
C458        C459   1.401       .  A
C458        F463   1.358       .  S
C459        C460   1.407       .  A
C459        F465   1.358       .  S
C460        C461   1.406       .  A
C461        C462   1.402       .  A
C461        F464   1.358       .  S
C462        F466   1.358       .  S
C469        C470   1.404       .  A
C469        C474   1.401       .  A
C469        F487   1.358       .  S
C470        C475   1.492       .  S
C470        C471   1.409       .  A
C471        C472   1.409       .  A
C471        F476   1.358       .  S
C472        C473   1.408       .  A
C472        F488   1.358       .  S
C473        C474   1.408       .  A
C474        F477   1.358       .  S
C475        C478   1.408       .  A
C475        C482   1.402       .  A
C478        C479   1.404       .  A
C478        F483   1.358       .  S
C479        C480   1.409       .  A
C479        F485   1.358       .  S
C480        C481   1.418       .  A
C481        C482   1.403       .  A
C481        F484   1.358       .  S
C482        F486   1.358       .  S
C489        C490   1.401       .  A
C489        C494   1.394       .  A
C489        F507   1.358       .  S
C490        C495   1.471       .  S
C490        C491   1.404       .  A
C491        C492   1.393       .  A
C491        F496   1.358       .  S
C492        C493   1.407       .  A
C492        F508   1.358       .  S
C493        C494   1.412       .  A
C494        F497   1.358       .  S
C495        C498   1.402       .  A
C495        C502   1.405       .  A
C498        C499   1.394       .  A
C498        F503   1.358       .  S
C499        C500   1.408       .  A
C499        F505   1.359       .  S
C500        C501   1.403       .  A
C501        C502   1.395       .  A
C501        F504   1.358       .  S
C502        F506   1.358       .  S
C509        C510   1.405       .  A
C509        C514   1.402       .  A
C509        F527   1.358       .  S
C510        C515   1.495       .  S
C510        C511   1.409       .  A
C511        C512   1.409       .  A
C511        F516   1.357       .  S
C512        C513   1.410       .  A
C512        F528   1.358       .  S
C513        C514   1.410       .  A
C514        F517   1.358       .  S
C515        C518   1.409       .  A
C515        C522   1.405       .  A
C518        C519   1.407       .  A
C518        F523   1.357       .  S
C519        C520   1.409       .  A
C519        F525   1.357       .  S
C520        C521   1.413       .  A
C521        C522   1.405       .  A
C521        F524   1.358       .  S
C522        F526   1.358       .  S
C529        C530   1.406       .  A
C529        C534   1.401       .  A
C529        F547   1.358       .  S
C530        C535   1.485       .  S
C530        C531   1.402       .  A
C531        C532   1.400       .  A
C531        F536   1.358       .  S
C532        C533   1.416       .  A
C532        F548   1.358       .  S
C533        C534   1.411       .  A
C534        F537   1.357       .  S
C535        C538   1.407       .  A
C535        C542   1.406       .  A
C538        C539   1.400       .  A
C538        F543   1.357       .  S
C539        C540   1.406       .  A
C539        F545   1.358       .  S
C540        C541   1.406       .  A
C541        C542   1.398       .  A
C541        F544   1.359       .  S
C542        F546   1.358       .  S
C549        C550   1.409       .  A
C549        C554   1.410       .  A
C549        F567   1.358   1_455  S
C550        C555   1.489   1_455  S
C550        C551   1.402       .  A
C551        C552   1.400       .  A
C551        F556   1.358       .  S
C552        C553   1.410       .  A
C552        F568   1.358       .  S
C553        C554   1.409       .  A
C554        F557   1.357       .  S
C555        C558   1.403       .  A
C555        C562   1.405       .  A
C558        C559   1.405       .  A
C558        F563   1.357       .  S
C559        C560   1.415       .  A
C559        F565   1.358       .  S
C560        C561   1.413       .  A
C561        C562   1.402       .  A
C561        F564   1.358       .  S
C562        F566   1.358       .  S
C569        C570   1.405       .  A
C569        C574   1.403       .  A
C569        F587   1.358       .  S
C570        C575   1.492       .  S
C570        C571   1.406       .  A
C571        C572   1.409       .  A
C571        F576   1.358       .  S
C572        C573   1.413       .  A
C572        F588   1.358       .  S
C573        C574   1.410       .  A
C574        F577   1.358       .  S
C575        C578   1.406       .  A
C575        C582   1.408       .  A
C578        C579   1.403       .  A
C578        F583   1.358       .  S
C579        C580   1.406       .  A
C579        F585   1.358       .  S
C580        C581   1.408       .  A
C581        C582   1.409       .  A
C581        F584   1.358       .  S
C582        F586   1.357       .  S
C589        C590   1.407       .  A
C589        C594   1.405       .  A
C589        F607   1.357       .  S
C590        C595   1.476       .  S
C590        C591   1.400       .  A
C591        C592   1.391       .  A
C591        F596   1.358       .  S
C592        C593   1.408       .  A
C592        F608   1.359       .  S
C593        C594   1.406       .  A
C594        F597   1.358       .  S
C595        C598   1.405       .  A
C595        C602   1.401       .  A
C598        C599   1.403       .  A
C598        F603   1.358       .  S
C599        C600   1.410       .  A
C599        F605   1.358       .  S
C600        C601   1.408       .  A
C601        C602   1.395       .  A
C601        F604   1.358       .  S
C602        F606   1.358       .  S
C609        C610   1.408       .  A
C609        C614   1.402       .  A
C609        F627   1.358       .  S
C610        C615   1.483       .  S
C610        C611   1.404       .  A
C611        C612   1.396       .  A
C611        F616   1.358       .  S
C612        C613   1.407       .  A
C612        F628   1.358       .  S
C613        C614   1.406       .  A
C614        F617   1.358       .  S
C615        C618   1.406       .  A
C615        C622   1.406       .  A
C618        C619   1.403       .  A
C618        F623   1.358       .  S
C619        C620   1.411       .  A
C619        F625   1.358       .  S
C620        C621   1.405       .  A
C621        C622   1.395       .  A
C621        F624   1.358       .  S
C622        F626   1.358       .  S
C629        C630   1.408       .  A
C629        C634   1.406       .  A
C629        F647   1.358       .  S
C630        C635   1.495       .  S
C630        C631   1.404       .  A
C631        C632   1.405       .  A
C631        F636   1.358       .  S
C632        C633   1.415       .  A
C632        F648   1.358       .  S
C633        C634   1.412       .  A
C634        F637   1.358       .  S
C635        C638   1.409       .  A
C635        C642   1.406       .  A
C638        C639   1.407       .  A
C638        F643   1.358       .  S
C639        C640   1.407       .  A
C639        F645   1.358       .  S
C640        C641   1.408       .  A
C641        C642   1.405       .  A
C641        F644   1.358       .  S
C642        F646   1.358       .  S
C649        C650   1.415       .  A
C649        C654   1.407       .  A
C649        F667   1.358       .  S
C650        C655   1.504       .  S
C650        C651   1.409       .  A
C651        C652   1.405       .  A
C651        F656   1.357       .  S
C652        C653   1.407       .  A
C652        F668   1.358       .  S
C653        C654   1.404       .  A
C654        F657   1.358       .  S
C655        C658   1.414       .  A
C655        C662   1.409       .  A
C658        C659   1.406       .  A
C658        F663   1.357       .  S
C659        C660   1.403       .  A
C659        F665   1.358       .  S
C660        C661   1.410       .  A
C661        C662   1.405       .  A
C661        F664   1.358       .  S
C662        F666   1.358       .  S
C669        C670   1.402       .  A
C669        C674   1.395       .  A
C669        F687   1.358       .  S
C670        C675   1.475       .  S
C670        C671   1.402       .  A
C671        C672   1.399       .  A
C671        F676   1.357       .  S
C672        C673   1.411       .  A
C672        F688   1.358   1_655  S
C673        C674   1.411       .  A
C674        F677   1.358       .  S
C675        C678   1.404       .  A
C675        C682   1.399       .  A
C678        C679   1.401       .  A
C678        F683   1.358       .  S
C679        C680   1.412       .  A
C679        F685   1.357       .  S
C680        C681   1.415       .  A
C681        C682   1.395       .  A
C681        F684   1.358       .  S
C682        F686   1.358       .  S
C689        C690   1.411       .  A
C689        C694   1.412   1_556  A
C689        F707   1.357       .  S
C690        C695   1.496       .  S
C690        C691   1.402       .  A
C691        C692   1.397   1_556  A
C691        F696   1.358       .  S
C692        C693   1.418       .  A
C692        F708   1.358       .  S
C693        C694   1.413       .  A
C694        F697   1.357       .  S
C695        C698   1.404       .  A
C695        C702   1.413       .  A
C698        C699   1.401       .  A
C698        F703   1.358       .  S
C699        C700   1.414       .  A
C699        F705   1.359       .  S
C700        C701   1.405       .  A
C701        C702   1.410       .  A
C701        F704   1.357       .  S
C702        F706   1.357       .  S
C709        C710   1.405       .  A
C709        C714   1.400       .  A
C709        F727   1.358       .  S
C710        C715   1.483       .  S
C710        C711   1.405       .  A
C711        C712   1.400       .  A
C711        F716   1.358       .  S
C712        C713   1.409       .  A
C712        F728   1.358       .  S
C713        C714   1.410       .  A
C714        F717   1.358       .  S
C715        C718   1.407       .  A
C715        C722   1.400       .  A
C718        C719   1.404       .  A
C718        F723   1.358       .  S
C719        C720   1.410       .  A
C719        F725   1.358       .  S
C720        C721   1.416       .  A
C721        C722   1.395       .  A
C721        F724   1.358       .  S
C722        F726   1.358       .  S
C729        C730   1.401       .  A
C729        C734   1.393       .  A
C729        F747   1.358       .  S
C730        C735   1.467       .  S
C730        C731   1.402       .  A
C731        C732   1.395       .  A
C731        F736   1.358       .  S
C732        C733   1.410       .  A
C732        F748   1.358       .  S
C733        C734   1.407       .  A
C734        F737   1.358       .  S
C735        C738   1.397       .  A
C735        C742   1.405       .  A
C738        C739   1.387       .  A
C738        F743   1.358       .  S
C739        C740   1.413       .  A
C739        F745   1.359       .  S
C740        C741   1.407       .  A
C741        C742   1.400       .  A
C741        F744   1.358       .  S
C742        F746   1.358       .  S
C749        C750   1.412   1_455  A
C749        C754   1.409       .  A
C749        F767   1.357       .  S
C750        C755   1.500       .  S
C750        C751   1.407       .  A
C751        C752   1.406   1_655  A
C751        F756   1.358       .  S
C752        C753   1.411       .  A
C752        F768   1.358   1_455  S
C753        C754   1.406       .  A
C754        F757   1.357       .  S
C755        C758   1.406       .  A
C755        C762   1.412       .  A
C758        C759   1.404       .  A
C758        F763   1.358   1_655  S
C759        C760   1.411       .  A
C759        F765   1.358       .  S
C760        C761   1.408       .  A
C761        C762   1.411       .  A
C761        F764   1.357       .  S
C762        F766   1.358       .  S
C769        C770   1.402       .  A
C769        C774   1.399   1_565  A
C769        F787   1.358   1_565  S
C770        C775   1.473       .  S
C770        C771   1.401       .  A
C771        C772   1.399       .  A
C771        F776   1.357       .  S
C772        C773   1.409       .  A
C772        F788   1.358   1_655  S
C773        C774   1.411   1_565  A
C774        F777   1.358       .  S
C775        C778   1.399       .  A
C775        C782   1.405       .  A
C778        C779   1.397       .  A
C778        F783   1.358       .  S
C779        C780   1.410       .  A
C779        F785   1.358       .  S
C780        C781   1.408       .  A
C781        C782   1.401       .  A
C781        F784   1.358       .  S
C782        F786   1.358       .  S
C789        C790   1.403       .  A
C789        C794   1.400       .  A
C789        F807   1.358       .  S
C790        C795   1.479       .  S
C790        C791   1.400       .  A
C791        C792   1.401       .  A
C791        F796   1.358       .  S
C792        C793   1.418       .  A
C792        F808   1.358       .  S
C793        C794   1.410       .  A
C794        F797   1.357       .  S
C795        C798   1.402       .  A
C795        C802   1.403       .  A
C798        C799   1.400       .  A
C798        F803   1.358       .  S
C799        C800   1.413       .  A
C799        F805   1.358       .  S
C800        C801   1.410       .  A
C801        C802   1.400       .  A
C801        F804   1.357       .  S
C802        F806   1.358       .  S
C809        C810   1.409       .  A
C809        C814   1.406       .  A
C809        F827   1.357       .  S
C810        C815   1.503       .  S
C810        C811   1.413       .  A
C811        C812   1.407       .  A
C811        F816   1.358       .  S
C812        C813   1.404       .  A
C812        F828   1.358       .  S
C813        C814   1.407       .  A
C814        F817   1.358       .  S
C815        C818   1.409       .  A
C815        C822   1.412   1_545  A
C818        C819   1.406   1_545  A
C818        F823   1.358       .  S
C819        C820   1.408       .  A
C819        F825   1.358       .  S
C820        C821   1.405       .  A
C821        C822   1.407       .  A
C821        F824   1.358       .  S
C822        F826   1.357       .  S
C829        C830   1.402   1_655  A
C829        C834   1.399   1_655  A
C829        F847   1.358       .  S
C830        C835   1.489   1_455  S
C830        C831   1.408       .  A
C831        C832   1.407       .  A
C831        F836   1.357       .  S
C832        C833   1.410       .  A
C832        F848   1.357       .  S
C833        C834   1.415       .  A
C834        F837   1.358   1_455  S
C835        C838   1.403       .  A
C835        C842   1.405       .  A
C838        C839   1.403       .  A
C838        F843   1.357   1_655  S
C839        C840   1.414       .  A
C839        F845   1.357       .  S
C840        C841   1.416       .  A
C841        C842   1.404       .  A
C841        F844   1.358       .  S
C842        F846   1.358       .  S
C849        C850   1.406       .  A
C849        C854   1.401       .  A
C849        F867   1.358       .  S
C850        C855   1.491       .  S
C850        C851   1.406       .  A
C851        C852   1.408       .  A
C851        F856   1.357       .  S
C852        C853   1.413       .  A
C852        F868   1.358       .  S
C853        C854   1.408       .  A
C854        F857   1.358       .  S
C855        C858   1.405       .  A
C855        C862   1.409       .  A
C858        C859   1.402   1_554  A
C858        F863   1.358       .  S
C859        C860   1.406       .  A
C859        F865   1.358       .  S
C860        C861   1.407       .  A
C861        C862   1.408   1_556  A
C861        F864   1.358       .  S
C862        F866   1.358       .  S
C869        C870   1.405       .  A
C869        C874   1.396       .  A
C869        F887   1.358       .  S
C870        C875   1.475       .  S
C870        C871   1.405       .  A
C871        C872   1.399       .  A
C871        F876   1.358       .  S
C872        C873   1.406       .  A
C872        F888   1.358       .  S
C873        C874   1.402       .  A
C874        F877   1.357       .  S
C875        C878   1.403       .  A
C875        C882   1.402       .  A
C878        C879   1.396       .  A
C878        F883   1.358       .  S
C879        C880   1.409       .  A
C879        F885   1.358       .  S
C880        C881   1.412       .  A
C881        C882   1.396       .  A
C881        F884   1.358       .  S
C882        F886   1.358       .  S
C889        C890   1.405       .  A
C889        C894   1.407       .  A
C889        F907   1.357       .  S
C890        C895   1.497       .  S
C890        C891   1.407       .  A
C891        C892   1.406       .  A
C891        F896   1.358   1_565  S
C892        C893   1.414       .  A
C892        F908   1.358       .  S
C893        C894   1.414       .  A
C894        F897   1.357       .  S
C895        C898   1.408   1_565  A
C895        C902   1.407       .  A
C898        C899   1.405       .  A
C898        F903   1.358       .  S
C899        C900   1.410       .  A
C899        F905   1.358       .  S
C900        C901   1.409       .  A
C901        C902   1.407   1_545  A
C901        F904   1.357       .  S
C902        F906   1.357       .  S
C909        C910   1.398   1_655  A
C909        C914   1.395       .  A
C909        F927   1.358   1_655  S
C910        C915   1.469   1_554  S
C910        C911   1.401   1_445  A
C911        C912   1.399       .  A
C911        F916   1.358   1_655  S
C912        C913   1.411       .  A
C912        F928   1.358       .  S
C913        C914   1.414   1_565  A
C914        F917   1.358       .  S
C915        C918   1.399       .  A
C915        C922   1.401   1_455  A
C918        C919   1.397       .  A
C918        F923   1.358   1_556  S
C919        C920   1.413       .  A
C919        F925   1.358       .  S
C920        C921   1.409       .  A
C921        C922   1.398   1_455  A
C921        F924   1.358   1_455  S
C922        F926   1.358       .  S
C929        C930   1.405       .  A
C929        C934   1.399       .  A
C929        F947   1.358       .  S
C930        C935   1.485       .  S
C930        C931   1.404       .  A
C931        C932   1.401       .  A
C931        F936   1.358       .  S
C932        C933   1.412       .  A
C932        F948   1.357       .  S
C933        C934   1.411       .  A
C934        F937   1.358       .  S
C935        C938   1.405       .  A
C935        C942   1.405       .  A
C938        C939   1.397       .  A
C938        F943   1.358       .  S
C939        C940   1.411       .  A
C939        F945   1.358       .  S
C940        C941   1.413       .  A
C941        C942   1.399       .  A
C941        F944   1.358       .  S
C942        F946   1.358       .  S
C949        C950   1.401       .  A
C949        C954   1.399       .  A
C949        F967   1.358       .  S
C950        C955   1.478       .  S
C950        C951   1.404       .  A
C951        C952   1.398       .  A
C951        F956   1.358       .  S
C952        C953   1.410       .  A
C952        F968   1.358       .  S
C953        C954   1.415       .  A
C954        F957   1.358       .  S
C955        C958   1.404       .  A
C955        C962   1.404       .  A
C958        C959   1.397       .  A
C958        F963   1.358       .  S
C959        C960   1.407       .  A
C959        F965   1.358       .  S
C960        C961   1.410   1_565  A
C961        C962   1.400   1_545  A
C961        F964   1.358       .  S
C962        F966   1.358   1_565  S
C969        C970   1.407       .  A
C969        C974   1.403       .  A
C969        F987   1.358       .  S
C970        C975   1.494       .  S
C970        C971   1.408       .  A
C971        C972   1.406       .  A
C971        F976   1.357       .  S
C972        C973   1.409       .  A
C972        F988   1.357       .  S
C973        C974   1.410       .  A
C974        F977   1.358       .  S
C975        C978   1.405       .  A
C975        C982   1.407       .  A
C978        C979   1.405       .  A
C978        F983   1.358       .  S
C979        C980   1.417       .  A
C979        F985   1.358       .  S
C980        C981   1.412       .  A
C981        C982   1.404       .  A
C981        F984   1.357       .  S
C982        F986   1.358       .  S
C989        C990   1.405       .  A
C989        C994   1.405       .  A
C989       F1007   1.358       .  S
C990        C995   1.489       .  S
C990        C991   1.405       .  A
C991        C992   1.402       .  A
C991        F996   1.358       .  S
C992        C993   1.412       .  A
C992       F1008   1.358       .  S
C993        C994   1.411       .  A
C994        F997   1.357       .  S
C995        C998   1.404       .  A
C995       C1002   1.409       .  A
C998        C999   1.399       .  A
C998       F1003   1.358       .  S
C999       C1000   1.411       .  A
C999       F1005   1.358       .  S
C1000      C1001   1.408       .  A
C1001      C1002   1.406       .  A
C1001      F1004   1.358       .  S
C1002      F1006   1.358       .  S
C1009      C1010   1.409   1_545  A
C1009      C1014   1.407   1_545  A
C1009      F1027   1.358       .  S
C1010      C1015   1.496   1_565  S
C1010      C1011   1.408       .  A
C1011      C1012   1.403       .  A
C1011      F1016   1.358       .  S
C1012      C1013   1.405       .  A
C1012      F1028   1.358       .  S
C1013      C1014   1.407       .  A
C1014      F1017   1.358       .  S
C1015      C1018   1.408       .  A
C1015      C1022   1.404       .  A
C1018      C1019   1.406       .  A
C1018      F1023   1.358       .  S
C1019      C1020   1.412       .  A
C1019      F1025   1.357       .  S
C1020      C1021   1.417       .  A
C1021      C1022   1.403       .  A
C1021      F1024   1.358       .  S
C1022      F1026   1.358       .  S
C1029      C1030   1.407       .  A
C1029      C1034   1.403       .  A
C1029      F1047   1.358       .  S
C1030      C1035   1.498       .  S
C1030      C1031   1.408       .  A
C1031      C1032   1.407       .  A
C1031      F1036   1.358       .  S
C1032      C1033   1.414       .  A
C1032      F1048   1.358       .  S
C1033      C1034   1.414       .  A
C1034      F1037   1.358       .  S
C1035      C1038   1.409       .  A
C1035      C1042   1.411       .  A
C1038      C1039   1.404       .  A
C1038      F1043   1.357       .  S
C1039      C1040   1.405       .  A
C1039      F1045   1.357       .  S
C1040      C1041   1.406       .  A
C1041      C1042   1.406       .  A
C1041      F1044   1.358       .  S
C1042      F1046   1.358       .  S
C1049      C1050   1.410       .  A
C1049      C1054   1.414       .  A
C1049      F1067   1.357       .  S
C1050      C1055   1.498       .  S
C1050      C1051   1.406       .  A
C1051      C1052   1.400       .  A
C1051      F1056   1.359       .  S
C1052      C1053   1.410       .  A
C1052      F1068   1.359       .  S
C1053      C1054   1.409       .  A
C1054      F1057   1.357       .  S
C1055      C1058   1.408       .  A
C1055      C1062   1.406       .  A
C1058      C1059   1.412       .  A
C1058      F1063   1.357       .  S
C1059      C1060   1.414       .  A
C1059      F1065   1.358       .  S
C1060      C1061   1.410       .  A
C1061      C1062   1.400       .  A
C1061      F1064   1.358       .  S
C1062      F1066   1.358       .  S
C1069      C1070   1.405       .  A
C1069      C1074   1.403   1_545  A
C1069      F1087   1.357   1_545  S
C1070      C1075   1.486       .  S
C1070      C1071   1.406       .  A
C1071      C1072   1.397       .  A
C1071      F1076   1.358       .  S
C1072      C1073   1.410       .  A
C1072      F1088   1.358       .  S
C1073      C1074   1.412   1_545  A
C1074      F1077   1.358       .  S
C1075      C1078   1.402       .  A
C1075      C1082   1.408       .  A
C1078      C1079   1.397       .  A
C1078      F1083   1.358       .  S
C1079      C1080   1.412       .  A
C1079      F1085   1.358       .  S
C1080      C1081   1.410       .  A
C1081      C1082   1.406       .  A
C1081      F1084   1.357       .  S
C1082      F1086   1.358       .  S
C1089      C1090   1.408       .  A
C1089      C1094   1.401       .  A
C1089      F1107   1.358       .  S
C1090      C1095   1.481   1_565  S
C1090      C1091   1.402   1_565  A
C1091      C1092   1.391       .  A
C1091      F1096   1.358       .  S
C1092      C1093   1.411   1_545  A
C1092      F1108   1.358       .  S
C1093      C1094   1.408       .  A
C1094      F1097   1.358       .  S
C1095      C1098   1.407       .  A
C1095      C1102   1.404   1_545  A
C1098      C1099   1.394       .  A
C1098      F1103   1.358       .  S
C1099      C1100   1.405       .  A
C1099      F1105   1.357       .  S
C1100      C1101   1.413   1_545  A
C1101      C1102   1.399       .  A
C1101      F1104   1.359       .  S
C1102      F1106   1.358       .  S
C1109      C1110   1.400       .  A
C1109      C1114   1.400       .  A
C1109      F1127   1.358       .  S
C1110      C1115   1.493       .  S
C1110      C1111   1.410       .  A
C1111      C1112   1.410       .  A
C1111      F1116   1.357       .  S
C1112      C1113   1.411       .  A
C1112      F1128   1.357       .  S
C1113      C1114   1.419       .  A
C1114      F1117   1.358       .  S
C1115      C1118   1.401       .  A
C1115      C1122   1.409       .  A
C1118      C1119   1.400       .  A
C1118      F1123   1.358       .  S
C1119      C1120   1.416       .  A
C1119      F1125   1.358       .  S
C1120      C1121   1.412       .  A
C1121      C1122   1.411       .  A
C1121      F1124   1.357       .  S
C1122      F1126   1.358       .  S
C1129      C1130   1.403       .  A
C1129      C1134   1.396       .  A
C1129      F1147   1.358       .  S
C1130      C1135   1.474       .  S
C1130      C1131   1.403       .  A
C1131      C1132   1.398       .  A
C1131      F1136   1.358       .  S
C1132      C1133   1.408       .  A
C1132      F1148   1.358       .  S
C1133      C1134   1.408       .  A
C1134      F1137   1.358       .  S
C1135      C1138   1.401       .  A
C1135      C1142   1.407       .  A
C1138      C1139   1.394       .  A
C1138      F1143   1.358       .  S
C1139      C1140   1.408       .  A
C1139      F1145   1.359       .  S
C1140      C1141   1.404       .  A
C1141      C1142   1.399       .  A
C1141      F1144   1.358       .  S
C1142      F1146   1.358       .  S
C1149      C1150   1.408       .  A
C1149      C1154   1.403       .  A
C1149      F1167   1.358   1_565  S
C1150      C1155   1.490   1_565  S
C1150      C1151   1.402       .  A
C1151      C1152   1.401       .  A
C1151      F1156   1.358       .  S
C1152      C1153   1.414       .  A
C1152      F1168   1.358       .  S
C1153      C1154   1.411       .  A
C1154      F1157   1.358       .  S
C1155      C1158   1.409       .  A
C1155      C1162   1.404   1_545  A
C1158      C1159   1.405       .  A
C1158      F1163   1.358       .  S
C1159      C1160   1.405       .  A
C1159      F1165   1.358       .  S
C1160      C1161   1.409       .  A
C1161      C1162   1.402   1_545  A
C1161      F1164   1.358       .  S
C1162      F1166   1.358       .  S
C1169      C1170   1.399       .  A
C1169      C1174   1.396       .  A
C1169      F1187   1.358       .  S
C1170      C1175   1.485       .  S
C1170      C1171   1.408       .  A
C1171      C1172   1.407       .  A
C1171      F1176   1.358       .  S
C1172      C1173   1.411       .  A
C1172      F1188   1.358       .  S
C1173      C1174   1.415       .  A
C1174      F1177   1.358       .  S
C1175      C1178   1.406       .  A
C1175      C1182   1.404   1_545  A
C1178      C1179   1.399       .  A
C1178      F1183   1.358       .  S
C1179      C1180   1.407   1_545  A
C1179      F1185   1.358       .  S
C1180      C1181   1.411       .  A
C1181      C1182   1.403       .  A
C1181      F1184   1.358       .  S
C1182      F1186   1.358       .  S
C1189      C1190   1.415       .  A
C1189      C1194   1.408   1_556  A
C1189      F1207   1.357       .  S
C1190      C1195   1.505       .  S
C1190      C1191   1.409       .  A
C1191      C1192   1.404   1_556  A
C1191      F1196   1.358       .  S
C1192      C1193   1.407       .  A
C1192      F1208   1.358       .  S
C1193      C1194   1.403       .  A
C1194      F1197   1.358       .  S
C1195      C1198   1.413       .  A
C1195      C1202   1.410       .  A
C1198      C1199   1.405       .  A
C1198      F1203   1.357       .  S
C1199      C1200   1.404       .  A
C1199      F1205   1.358       .  S
C1200      C1201   1.409       .  A
C1201      C1202   1.407       .  A
C1201      F1204   1.358       .  S
C1202      F1206   1.358       .  S
C1209      C1210   1.406       .  A
C1209      C1214   1.405       .  A
C1209      F1227   1.358       .  S
C1210      C1215   1.492   1_655  S
C1210      C1211   1.407       .  A
C1211      C1212   1.402       .  A
C1211      F1216   1.358       .  S
C1212      C1213   1.411       .  A
C1212      F1228   1.358       .  S
C1213      C1214   1.413       .  A
C1214      F1217   1.358       .  S
C1215      C1218   1.409       .  A
C1215      C1222   1.408       .  A
C1218      C1219   1.405       .  A
C1218      F1223   1.357       .  S
C1219      C1220   1.405       .  A
C1219      F1225   1.358       .  S
C1220      C1221   1.405       .  A
C1221      C1222   1.401       .  A
C1221      F1224   1.358       .  S
C1222      F1226   1.358       .  S
C1229      C1230   1.407       .  A
C1229      C1234   1.411       .  A
C1229      F1247   1.357       .  S
C1230      C1235   1.487       .  S
C1230      C1231   1.403       .  A
C1231      C1232   1.398       .  A
C1231      F1236   1.359       .  S
C1232      C1233   1.410       .  A
C1232      F1248   1.359       .  S
C1233      C1234   1.409       .  A
C1234      F1237   1.357       .  S
C1235      C1238   1.407       .  A
C1235      C1242   1.404       .  A
C1238      C1239   1.405       .  A
C1238      F1243   1.358       .  S
C1239      C1240   1.406       .  A
C1239      F1245   1.358       .  S
C1240      C1241   1.408       .  A
C1241      C1242   1.403       .  A
C1241      F1244   1.358       .  S
C1242      F1246   1.357       .  S
C1249      C1250   1.405       .  A
C1249      C1254   1.398       .  A
C1249      F1267   1.358       .  S
C1250      C1255   1.484       .  S
C1250      C1251   1.406       .  A
C1251      C1252   1.401       .  A
C1251      F1256   1.358       .  S
C1252      C1253   1.410       .  A
C1252      F1268   1.358       .  S
C1253      C1254   1.409       .  A
C1254      F1257   1.358       .  S
C1255      C1258   1.405       .  A
C1255      C1262   1.407       .  A
C1258      C1259   1.398       .  A
C1258      F1263   1.358       .  S
C1259      C1260   1.408       .  A
C1259      F1265   1.359       .  S
C1260      C1261   1.407       .  A
C1261      C1262   1.403       .  A
C1261      F1264   1.357       .  S
C1262      F1266   1.358       .  S
C1269      C1270   1.403       .  A
C1269      C1274   1.394       .  A
C1269      F1287   1.358       .  S
C1270      C1275   1.478       .  S
C1270      C1271   1.404       .  A
C1271      C1272   1.397       .  A
C1271      F1276   1.358       .  S
C1272      C1273   1.411       .  A
C1272      F1288   1.358       .  S
C1273      C1274   1.411       .  A
C1274      F1277   1.358       .  S
C1275      C1278   1.405       .  A
C1275      C1282   1.404       .  A
C1278      C1279   1.396       .  A
C1278      F1283   1.358       .  S
C1279      C1280   1.410       .  A
C1279      F1285   1.359       .  S
C1280      C1281   1.409       .  A
C1281      C1282   1.394       .  A
C1281      F1284   1.358       .  S
C1282      F1286   1.358       .  S
C1289      C1290   1.402       .  A
C1289      C1294   1.393       .  A
C1289      F1307   1.360       .  S
C1290      C1295   1.481       .  S
C1290      C1291   1.407       .  A
C1291      C1292   1.404       .  A
C1291      F1296   1.357       .  S
C1292      C1293   1.409       .  A
C1292      F1308   1.359       .  S
C1293      C1294   1.412       .  A
C1294      F1297   1.356       .  S
C1295      C1298   1.403       .  A
C1295      C1302   1.404       .  A
C1298      C1299   1.389       .  A
C1298      F1303   1.357       .  S
C1299      C1300   1.408       .  A
C1299      F1305   1.361       .  S
C1300      C1301   1.418       .  A
C1301      C1302   1.406       .  A
C1301      F1304   1.355       .  S
C1302      F1306   1.360       .  S
C1309      C1310   1.413       .  A
C1309      C1314   1.407       .  A
C1309      F1327   1.357       .  S
C1310      C1315   1.504       .  S
C1310      C1311   1.411       .  A
C1311      C1312   1.404       .  A
C1311      F1316   1.358       .  S
C1312      C1313   1.406       .  A
C1312      F1328   1.358       .  S
C1313      C1314   1.405       .  A
C1314      F1317   1.358       .  S
C1315      C1318   1.412       .  A
C1315      C1322   1.411       .  A
C1318      C1319   1.409       .  A
C1318      F1323   1.357       .  S
C1319      C1320   1.408       .  A
C1319      F1325   1.357       .  S
C1320      C1321   1.408       .  A
C1321      C1322   1.402       .  A
C1321      F1324   1.358       .  S
C1322      F1326   1.358       .  S
