geometry optimzed in LAMMPS
_audit_creation_date              2020-12-01 
_audit_creation_method            'lammps2cif' 
_symmetry_space_group_name_H-M    'P1' 
_symmetry_Int_Tables_number       1 
_symmetry_cell_setting            triclinic 
loop_ 
_symmetry_equiv_pos_as_xyz 
  x,y,z 
_cell_length_a                    39.41632879 
_cell_length_b                    39.80936940892781 
_cell_length_c                    35.348737091351424 
_cell_angle_alpha                 90.1389778152959 
_cell_angle_beta                  90.16387588118324 
_cell_angle_gamma                 90.00811133125431 
loop_ 
_atom_site_label 
_atom_site_type_symbol 
_atom_site_fract_x 
_atom_site_fract_y 
_atom_site_fract_z 
_atom_site_charge 
O1          O  0.39529828  0.33430171  0.63513441    -0.82900
C2          C  0.99453237  0.41163450  0.70909899     0.96400
O3          O  0.99709301  0.38004594  0.70283929    -0.72100
O4          O  0.44425851  0.34374908  0.72539947    -0.75600
Al5        Al  0.46599070  0.34768275  0.67792496     1.49000
C6          C  0.41318100  0.34341318  0.73395891     0.91700
O7          O  0.38392137  0.41435861  0.68669868    -0.81900
O8          O  0.44033459  0.40745074  0.59498121    -0.75400
Al9        Al  0.39359663  0.37408912  0.66094117     1.90100
O10         O  0.41713963  0.44562843  0.65257438    -0.74500
O11         O  0.99967818  0.39961647  0.62711664    -0.74300
O12         O  0.47357272  0.42950105  0.69093756    -0.80000
O13         O  0.99046586  0.34627733  0.63198490    -0.78200
O14         O  0.43836368  0.37965072  0.66138966    -1.14300
O15         O  0.44070709  0.31001912  0.65611696    -0.73500
C16         C  0.41399965  0.30921252  0.63605250     0.97200
C17         C  0.39030520  0.44200739  0.67157899     0.93600
Al18       Al  0.45609674  0.41751222  0.64331452     1.55600
O19         O  0.39160770  0.35239351  0.70956684    -0.78200
C20         C  0.00589260  0.36999923  0.61638777     0.97700
C21         C  0.41012269  0.40090844  0.58610876     0.92600
O22         O  0.38794811  0.39392668  0.61095920    -0.83500
O23         O  0.07661944  0.34857378  0.38608418    -0.82900
C24         C  0.15170162  0.24767035  0.46051859     0.96400
O25         O  0.11971450  0.24652471  0.45381572    -0.72100
O26         O  0.08032006  0.29910916  0.47299913    -0.75600
Al27       Al  0.08821127  0.27673327  0.42618053     1.49000
C28         C  0.08140603  0.32979141  0.48194600     0.91700
O29         O  0.15765056  0.35697071  0.43904458    -0.81900
O30         O  0.15157106  0.30268339  0.34615347    -0.75400
Al31       Al  0.11709425  0.34856760  0.41218429     1.90100
O32         O  0.18939924  0.32395924  0.40551320    -0.74500
O33         O  0.14300118  0.24317770  0.37688238    -0.74300
O34         O  0.17083804  0.26757602  0.44250964    -0.80000
O35         O  0.08886930  0.25087624  0.38098150    -0.78200
O36         O  0.12165371  0.30389895  0.41167760    -1.14300
O37         O  0.05210720  0.30166282  0.40088012    -0.73500
C38         C  0.05157587  0.32959329  0.38372929     0.97200
C39         C  0.18590158  0.35037436  0.42490314     0.93600
Al40       Al  0.16035531  0.28602722  0.39466788     1.55600
O41         O  0.09490179  0.35072016  0.45992464    -0.78200
C42         C  0.11340839  0.23577466  0.36625525     0.97700
C43         C  0.14467961  0.33265118  0.33753753     0.92600
O44         O  0.13769397  0.35439062  0.36273264    -0.83500
O45         O  0.09056278  0.16363129  0.13811512    -0.82900
C46         C  0.48623063  0.08829523  0.20764477     0.96400
O47         O  0.48604957  0.12030023  0.20328928    -0.72100
O48         O  0.04074837  0.15698971  0.22746222    -0.75600
Al49       Al  0.01841677  0.15224639  0.17913548     1.49000
C50         C  0.07221157  0.15696881  0.23492790     0.91700
O51         O  0.09811716  0.08267862  0.18942689    -0.81900
O52         O  0.04409912  0.09228171  0.09598989    -0.75400
Al53       Al  0.09054323  0.12344557  0.16354094     1.90100
O54         O  0.06462534  0.05303013  0.15361730    -0.74500
O55         O  0.48421015  0.10082555  0.12707199    -0.74300
O56         O  0.50855294  0.07079365  0.19115575    -0.80000
O57         O  0.49343334  0.15403938  0.13292991    -0.78200
O58         O  0.04549912  0.11957350  0.16286322    -1.14300
O59         O  0.04486669  0.18885190  0.15699951    -0.73500
C60         C  0.07219555  0.18908534  0.13808650     0.97200
C61         C  0.09081091  0.05526737  0.17399979     0.93600
Al62       Al  0.02708119  0.08238147  0.14387984     1.55600
O63         O  0.09297005  0.14501820  0.21143759    -0.78200
C64         C  0.47746235  0.13045705  0.11727843     0.97700
C65         C  0.07474446  0.09810332  0.08820875     0.92600
O66         O  0.09658594  0.10353104  0.11395648    -0.83500
O67         O  0.41827229  0.15487962  0.90844176    -0.82900
C68         C  0.33307228  0.25799899  0.95804945     0.96400
O69         O  0.36245600  0.24692386  0.96681469    -0.72100
O70         O  0.40859087  0.19650026  0.97258033    -0.75600
Al71       Al  0.39492736  0.22596521  0.93188741     1.49000
C72         C  0.39678800  0.16965628  0.98654350     0.91700
O73         O  0.32459278  0.14121227  0.91828397    -0.81900
O74         O  0.32545058  0.18434367  0.85034434    -0.75400
Al75       Al  0.37042559  0.15394425  0.91472264     1.90100
O76         O  0.29652020  0.18816209  0.92026468    -0.74500
O77         O  0.35120904  0.24306210  0.85734629    -0.74300
O78         O  0.32025070  0.25016867  0.92656455    -0.80000
O79         O  0.38939737  0.26216556  0.89609602    -0.78200
O80         O  0.36371462  0.19839339  0.91289847    -1.14300
O81         O  0.42932063  0.20769256  0.89743628    -0.73500
C82         C  0.43635953  0.17674443  0.89268236     0.97200
C83         C  0.29683134  0.15648635  0.91941487     0.93600
Al84       Al  0.32675754  0.21508699  0.89089918     1.55600
O85         O  0.37440654  0.15308308  0.96875183    -0.78200
C86         C  0.37427566  0.26386434  0.86473404     0.97700
C87         C  0.34637131  0.16262338  0.83973329     0.92600
O88         O  0.36769771  0.15036109  0.86212013    -0.83500
O89         O  0.15947657  0.09146877  0.88086734    -0.82900
C90         C  0.07399136  0.49649599  0.81026915     0.96400
O91         O  0.10568960  0.49271974  0.81637558    -0.72100
O92         O  0.13880530  0.04441901  0.78660038    -0.75600
Al93       Al  0.14020163  0.02446510  0.83521800     1.49000
C94         C  0.14585936  0.07476076  0.77995225     0.91700
O95         O  0.07950354  0.10991761  0.82959843    -0.81900
O96         O  0.08401544  0.05440354  0.92136532    -0.75400
Al97       Al  0.11940714  0.09718012  0.85468412     1.90100
O98         O  0.04607335  0.07811337  0.86330101    -0.74500
O99         O  0.09036045  0.49492645  0.89091334    -0.74300
O100        O  0.05820967  0.52011245  0.82649538    -0.80000
O101        O  0.14476484  0.50190625  0.88271500    -0.78200
O102        O  0.11056493  0.05351005  0.85403593    -1.14300
O103        O  0.18144249  0.05023695  0.84848320    -0.73500
C104        C  0.18488498  0.07609044  0.86921408     0.97200
C105        C  0.05126139  0.10471132  0.84455299     0.93600
Al106      Al  0.07242625  0.03824782  0.87360819     1.55600
O107        O  0.14107469  0.09694758  0.80526262    -0.78200
C108        C  0.12066186  0.48773667  0.90000027     0.97700
C109        C  0.09234836  0.08396324  0.92973966     0.92600
O110        O  0.10030294  0.10510146  0.90448855    -0.83500
O111        O  0.33620912  0.08477655  0.63095302    -0.82900
C112        C  0.23432675  0.16378727  0.56116236     0.96400
O113        O  0.23509870  0.13163331  0.56170868    -0.72100
O114        O  0.29086515  0.09794004  0.53683490    -0.75600
Al115      Al  0.26695561  0.09829032  0.58397174     1.49000
C116        C  0.32252681  0.09584449  0.53193529     0.91700
O117        O  0.34630479  0.16578111  0.58179537    -0.81900
O118        O  0.29205437  0.15337972  0.67488459    -0.75400
Al119      Al  0.33817148  0.12502082  0.60643464     1.90100
O120        O  0.31276684  0.19540111  0.61790578    -0.74500
O121        O  0.23277317  0.14439677  0.64401208    -0.74300
O122        O  0.25507465  0.18002009  0.58145470    -0.80000
O123        O  0.23991593  0.09256832  0.62721737    -0.78200
O124        O  0.29319174  0.12949589  0.60540581    -1.14300
O125        O  0.29338781  0.05997346  0.60405049    -0.73500
C126        C  0.31890488  0.05896796  0.62628778     0.97200
C127        C  0.33924936  0.19297506  0.59774626     0.93600
Al128      Al  0.27470133  0.16536003  0.62732568     1.55600
O129        O  0.34223797  0.10415284  0.55834290    -0.78200
C130        C  0.22531203  0.11371681  0.64776426     0.97700
C131        C  0.32285635  0.14855168  0.68245553     0.92600
O132        O  0.34433408  0.14414526  0.65637189    -0.83500
O133        O  0.32644744  0.40618446  0.37869732    -0.82900
C134        C  0.40180586  0.00734914  0.30689948     0.96400
O135        O  0.36983472  0.00881243  0.31337857    -0.72100
O136        O  0.33002406  0.45691279  0.29261483    -0.75600
Al137      Al  0.33812066  0.47845968  0.34006709     1.49000
C138        C  0.33117322  0.42633701  0.28330757     0.91700
O139        O  0.40758747  0.39844109  0.32613490    -0.81900
O140        O  0.40124620  0.45148207  0.41995107    -0.75400
Al141      Al  0.36692547  0.40647743  0.35279950     1.90100
O142        O  0.43911243  0.43063194  0.36114190    -0.74500
O143        O  0.39322455  0.01131216  0.38970500    -0.74300
O144        O  0.42082461  0.98712593  0.32466313    -0.80000
O145        O  0.33908716  0.00359702  0.38585585    -0.78200
O146        O  0.37151091  0.45102127  0.35423576    -1.14300
O147        O  0.30187026  0.45331715  0.36488712    -0.73500
C148        C  0.30149032  0.42521463  0.38168780     0.97200
C149        C  0.43568993  0.40460642  0.34111273     0.93600
Al150      Al  0.41024476  0.46851173  0.37187165     1.55600
O151        O  0.34481073  0.40516869  0.30501594    -0.78200
C152        C  0.36375069  0.01876660  0.40037007     0.97700
C153        C  0.39454767  0.42129366  0.42776745     0.92600
O154        O  0.38753101  0.39994017  0.40214154    -0.83500
O155        O  0.14460110  0.41364274  0.12864401    -0.82900
C156        C  0.24782126  0.34130154  0.05601340     0.96400
O157        O  0.24817153  0.37320355  0.06105804    -0.72100
O158        O  0.19374882  0.40927623  0.03924104    -0.75600
Al159      Al  0.21627385  0.40425526  0.08679018     1.49000
C160        C  0.16246726  0.40875587  0.03154107     0.91700
O161        O  0.13797724  0.33272332  0.07682605    -0.81900
O162        O  0.19251051  0.34395723  0.17018167    -0.75400
Al163      Al  0.14502937  0.37380154  0.10274389     1.90100
O164        O  0.17210907  0.30379611  0.11254040    -0.74500
O165        O  0.25200014  0.35334128  0.13859255    -0.74300
O166        O  0.22829598  0.32258538  0.07506604    -0.80000
O167        O  0.24155992  0.40626069  0.13240093    -0.78200
O168        O  0.19012053  0.37079940  0.10298494    -1.14300
O169        O  0.18964220  0.44001346  0.11012877    -0.73500
C170        C  0.16263571  0.43925100  0.12951990     0.97200
C171        C  0.14544890  0.30558923  0.09276254     0.93600
Al172      Al  0.20947514  0.33399224  0.12202780     1.55600
O173        O  0.14175136  0.39586514  0.05458284    -0.78200
C174        C  0.25746344  0.38317522  0.14864472     0.97700
C175        C  0.16181155  0.34886591  0.17831883     0.92600
O176        O  0.13970343  0.35371514  0.15264935    -0.83500
C177        C  0.29642788  0.38377171  0.24746950    -0.03000
C178        C  0.31474328  0.41439458  0.24751929     0.06700
C179        C  0.31625626  0.43331411  0.21371915    -0.03100
C180        C  0.29950923  0.42191855  0.18066309    -0.03100
C181        C  0.28086037  0.39148381  0.18080023     0.06800
C182        C  0.28105697  0.37166100  0.21405382    -0.03300
Br183      Br  0.25948728  0.32807622  0.21565467    -0.01800
Br184      Br  0.28789198  0.36004191  0.29433943    -0.01900
Br185      Br  0.30383284  0.44756799  0.13450172    -0.01900
Br186      Br  0.34074470  0.47529303  0.21211338    -0.01900
C187        C  0.31902335  0.08442265  0.46130576    -0.03000
C188        C  0.33687514  0.08153579  0.49593634     0.06700
C189        C  0.36781798  0.06305196  0.49620715    -0.03100
C190        C  0.37832501  0.04504047  0.46377561    -0.03100
C191        C  0.35765389  0.04415057  0.43097866     0.06800
C192        C  0.32897409  0.06547487  0.42933700    -0.03300
Br193      Br  0.30387634  0.07010237  0.38257314    -0.01800
Br194      Br  0.28214233  0.11602153  0.45639796    -0.01900
Br195      Br  0.42053160  0.52026277  0.46581573    -0.01900
Br196      Br  0.39603093  0.06004330  0.54111567    -0.01900
C197        C  0.10906459  0.46404442  0.96558310    -0.03000
C198        C  0.12820796  0.46353669  0.93163781     0.06700
C199        C  0.15665775  0.44183603  0.92960721    -0.03100
C200        C  0.16721804  0.42306019  0.96156257    -0.03100
C201        C  0.14958535  0.42560875  0.99628849     0.06800
C202        C  0.12039908  0.44636843  0.99790656    -0.03300
Br203      Br  0.09770962  0.45440355  0.04562819    -0.01800
Br204      Br  0.06753426  0.48962271  0.96952065    -0.01900
Br205      Br  0.20593987  0.39360888  0.95720794    -0.01900
Br206      Br  0.18025620  0.43593917  0.88218368    -0.01900
C207        C  0.20589584  0.07034884  0.69562186    -0.03000
C208        C  0.20105141  0.10202467  0.67792742     0.06700
C209        C  0.17448102  0.12286251  0.69142675    -0.03100
C210        C  0.15522487  0.11338368  0.72357487    -0.03100
C211        C  0.16301023  0.08359787  0.74354252     0.06800
C212        C  0.18882919  0.06239907  0.72934813    -0.03300
Br213      Br  0.20471045  0.02398535  0.75799943    -0.01800
Br214      Br  0.23591743  0.03647496  0.67517291    -0.01900
Br215      Br  0.11747328  0.14082187  0.73950117    -0.01900
Br216      Br  0.16224648  0.16313191  0.66426738    -0.01900
C217        C  0.32685902  0.30471251  0.00798328    -0.03000
C218        C  0.31203459  0.28036101  0.98361020     0.06700
C219        C  0.27583878  0.27913494  0.98149861    -0.03100
C220        C  0.25562324  0.30191314  0.00203760    -0.03100
C221        C  0.27037288  0.32437497  0.02796058     0.06800
C222        C  0.30611625  0.32584003  0.03076960    -0.03300
Br223      Br  0.32660480  0.35579648  0.06716098    -0.01800
Br224      Br  0.37540145  0.31048316  0.00956385    -0.01900
Br225      Br  0.20693813  0.30305151  0.99408586    -0.01900
Br226      Br  0.25190145  0.24483098  0.95343887    -0.01900
C227        C  0.32358122  0.12892868  0.78673237    -0.03000
C228        C  0.34642484  0.15322382  0.79995546     0.06700
C229        C  0.36514178  0.17287893  0.77451323    -0.03100
C230        C  0.35816258  0.17090449  0.73568391    -0.03100
C231        C  0.33346620  0.14818481  0.72232135     0.06800
C232        C  0.31716218  0.12628577  0.74783618    -0.03300
Br233      Br  0.28572183  0.09293085  0.72988003    -0.01800
Br234      Br  0.30080752  0.09994757  0.82215356    -0.01900
Br235      Br  0.37935446  0.20238565  0.70212407    -0.01900
Br236      Br  0.39935915  0.20347688  0.79323213    -0.01900
C237        C  0.26313685  0.10259227  0.92335438    -0.03000
C238        C  0.26563276  0.13662804  0.91142836     0.06700
C239        C  0.24339231  0.14810210  0.88275468    -0.03100
C240        C  0.22178271  0.12548355  0.86432774    -0.03100
C241        C  0.21762395  0.09242983  0.87773897     0.06800
C242        C  0.23842857  0.08097032  0.90732278    -0.03300
Br243      Br  0.23313657  0.03556187  0.92510835    -0.01800
Br244      Br  0.29270716  0.08554233  0.96245992    -0.01900
Br245      Br  0.19954771  0.13993367  0.81853542    -0.01900
Br246      Br  0.24158248  0.19446589  0.86650342    -0.01900
C247        C  0.02795436  0.16160478  0.86160601    -0.03000
C248        C  0.02428857  0.13030860  0.84299756     0.06700
C249        C  0.49221030  0.11944793  0.83203394    -0.03100
C250        C  0.46333338  0.13594609  0.84565979    -0.03100
C251        C  0.46621754  0.16464967  0.86999577     0.06800
C252        C  0.49890583  0.17847039  0.87574437    -0.03300
Br253      Br  0.00506717  0.21759444  0.90746769    -0.01800
Br254      Br  0.07255680  0.17983582  0.87099320    -0.01900
Br255      Br  0.42144937  0.11581482  0.83065871    -0.01900
Br256      Br  0.48897621  0.08054493  0.79893861    -0.01900
C257        C  0.42284158  0.06432576  0.28631264    -0.03000
C258        C  0.41819481  0.02978597  0.27876225     0.06700
C259        C  0.43295123  0.01572107  0.24627721    -0.03100
C260        C  0.45180282  0.03587444  0.22126699    -0.03100
C261        C  0.45981219  0.06985136  0.23057455     0.06800
C262        C  0.44333631  0.08439019  0.26231587    -0.03300
Br263      Br  0.44792775  0.13158751  0.27349731    -0.01800
Br264      Br  0.40364230  0.08333802  0.33172519    -0.01900
Br265      Br  0.46286279  0.01675789  0.17244905    -0.01900
Br266      Br  0.42889698  0.46787379  0.23692476    -0.01900
C267        C  0.42685622  0.12478810  0.02419426    -0.03000
C268        C  0.41160306  0.15687328  0.02274662     0.06700
C269        C  0.41425704  0.17815464  0.05457897    -0.03100
C270        C  0.43358955  0.16846354  0.08651367    -0.03100
C271        C  0.45181204  0.13770497  0.08661513     0.06800
C272        C  0.44703946  0.11530557  0.05560422    -0.03300
Br273      Br  0.46956389  0.07217447  0.05362032    -0.01800
Br274      Br  0.42234998  0.09433825  0.98177557    -0.01900
Br275      Br  0.43340579  0.19720202  0.13067368    -0.01900
Br276      Br  0.39066342  0.22065022  0.05469753    -0.01900
C277        C  0.13438798  0.24445287  0.08499303    -0.03000
C278        C  0.12172047  0.27663545  0.09248405     0.06700
C279        C  0.08826387  0.27998206  0.10661273    -0.03100
C280        C  0.07073221  0.25153776  0.12050853    -0.03100
C281        C  0.08524424  0.21913449  0.11678682     0.06800
C282        C  0.11519884  0.21594742  0.09431911    -0.03300
Br283      Br  0.13058758  0.17343077  0.07381867    -0.01800
Br284      Br  0.17883004  0.23939973  0.06265416    -0.01900
Br285      Br  0.02786342  0.25826350  0.14589475    -0.01900
Br286      Br  0.06691356  0.32352817  0.10990558    -0.01900
C287        C  0.16592748  0.99997751  0.15219141    -0.03000
C288        C  0.14958563  0.46841881  0.15220089     0.06700
C289        C  0.11829082  0.46545379  0.17236505    -0.03100
C290        C  0.10023347  0.49435807  0.18283031    -0.03100
C291        C  0.11395765  0.02616786  0.17601236     0.06800
C292        C  0.14813370  0.02887505  0.16421244    -0.03300
Br293      Br  0.17018237  0.07210531  0.16142161    -0.01800
Br294      Br  0.21283543  0.00434546  0.13718491    -0.01900
Br295      Br  0.05574123  0.49073752  0.20557331    -0.01900
Br296      Br  0.09914915  0.42274878  0.18783520    -0.01900
C297        C  0.06508137  0.11930753  0.02352664    -0.03000
C298        C  0.08431311  0.09909177  0.04823439     0.06700
C299        C  0.10961544  0.07770843  0.03381700    -0.03100
C300        C  0.11434916  0.07538893  0.99456291    -0.03100
C301        C  0.09264830  0.09302003  0.96985012     0.06800
C302        C  0.06804819  0.11498741  0.98439749    -0.03300
Br303      Br  0.03504392  0.13527851  0.95164449    -0.01800
Br304      Br  0.03463880  0.15310147  0.04322822    -0.01900
Br305      Br  0.14941519  0.04668948  0.97442583    -0.01900
Br306      Br  0.13554363  0.04924034  0.06703401    -0.01900
C307        C  0.17169240  0.19025577  0.48156675    -0.03000
C308        C  0.16795192  0.22491949  0.48891182     0.06700
C309        C  0.18320231  0.23855016  0.52149070    -0.03100
C310        C  0.20193866  0.21797515  0.54653481    -0.03100
C311        C  0.20901220  0.18364327  0.53744089     0.06800
C312        C  0.19207216  0.16970947  0.50539851    -0.03300
Br313      Br  0.19587076  0.12261549  0.49314320    -0.01800
Br314      Br  0.15062205  0.17145866  0.43693394    -0.01900
Br315      Br  0.21439037  0.23748853  0.59487378    -0.01900
Br316      Br  0.17891248  0.28616606  0.53140542    -0.01900
C317        C  0.11544864  0.19306425  0.26935110    -0.03000
C318        C  0.08561251  0.17305261  0.27046006     0.06700
C319        C  0.06853889  0.16965232  0.30533426    -0.03100
C320        C  0.07880333  0.18859959  0.33732908    -0.03100
C321        C  0.10697159  0.21061247  0.33533507     0.06800
C322        C  0.12648034  0.21091126  0.30175573    -0.03300
Br323      Br  0.16777332  0.23694210  0.29849724    -0.01800
Br324      Br  0.14064305  0.19876520  0.22280215    -0.01900
Br325      Br  0.05509789  0.18286638  0.38464299    -0.01900
Br326      Br  0.03233489  0.13743250  0.31018491    -0.01900
C327        C  0.49647610  0.39144718  0.33007821    -0.03000
C328        C  0.46393371  0.38008907  0.33920649     0.06700
C329        C  0.45990708  0.34712409  0.35349481    -0.03100
C330        C  0.98846993  0.32900614  0.36649931    -0.03100
C331        C  0.02144527  0.34256533  0.36202964     0.06800
C332        C  0.02500960  0.37199263  0.33927604    -0.03300
Br333      Br  0.06821043  0.38635415  0.31906168    -0.01800
Br334      Br  0.50170264  0.43437191  0.30523609    -0.01900
Br335      Br  0.98110533  0.28696791  0.39251296    -0.01900
Br336      Br  0.41538851  0.32725414  0.35770120    -0.01900
C337        C  0.23891457  0.42644326  0.40119343    -0.03000
C338        C  0.27173233  0.41208522  0.40384729     0.06700
C339        C  0.27545156  0.38221896  0.42589659    -0.03100
C340        C  0.24682756  0.36324626  0.43607968    -0.03100
C341        C  0.21429641  0.37481136  0.42715946     0.06800
C342        C  0.21036380  0.40813963  0.41392532    -0.03300
Br343      Br  0.16606920  0.42875573  0.41197186    -0.01800
Br344      Br  0.23197711  0.47048624  0.37966209    -0.01900
Br345      Br  0.25162550  0.32139542  0.46322315    -0.01900
Br346      Br  0.31899815  0.36652108  0.44408739    -0.01900
C347        C  0.16593088  0.36670832  0.28295066    -0.03000
C348        C  0.14444143  0.34152460  0.29714362     0.06700
C349        C  0.12468510  0.32209944  0.27195901    -0.03100
C350        C  0.12985181  0.32462308  0.23281576    -0.03100
C351        C  0.15239850  0.34882322  0.21856762     0.06800
C352        C  0.16901455  0.37106573  0.24365591    -0.03300
Br353      Br  0.19612931  0.40747228  0.22413396    -0.01800
Br354      Br  0.19319009  0.39339190  0.31682790    -0.01900
Br355      Br  0.10899727  0.29235649  0.19958580    -0.01900
Br356      Br  0.08979804  0.29262961  0.29104717    -0.01900
C357        C  0.05004601  0.43808927  0.72760652    -0.03000
C358        C  0.01658272  0.42896761  0.73713802     0.06700
C359        C  0.00230298  0.44131881  0.77081252    -0.03100
C360        C  0.02134786  0.46222523  0.79522230    -0.03100
C361        C  0.05471809  0.47249596  0.78532535     0.06800
C362        C  0.06885848  0.46015618  0.75114349    -0.03300
Br363      Br  0.11264794  0.97552165  0.73425063    -0.01800
Br364      Br  0.56929653  0.42164953  0.68100532    -0.01900
Br365      Br  0.00109484  0.47558081  0.84265586    -0.01900
Br366      Br  0.95586370  0.43008383  0.78282644    -0.01900
C367        C  0.41861462  0.38073321  0.52050957    -0.03000
C368        C  0.40136136  0.40202598  0.54590209     0.06700
C369        C  0.38000092  0.42742048  0.53208358    -0.03100
C370        C  0.37478151  0.43073795  0.49313683    -0.03100
C371        C  0.39440227  0.41165811  0.46773640     0.06800
C372        C  0.41619787  0.38646100  0.48144308    -0.03300
Br373      Br  0.44564769  0.36250848  0.44765883    -0.01800
Br374      Br  0.44689944  0.34476951  0.53932445    -0.01900
Br375      Br  0.34065982  0.46152103  0.47473454    -0.01900
Br376      Br  0.36278385  0.46142570  0.56534224    -0.01900
C377        C  0.37625779  0.50120221  0.68460860    -0.03000
C378        C  0.36539152  0.46969092  0.67247743     0.06700
C379        C  0.33400248  0.46662041  0.65339059    -0.03100
C380        C  0.31768910  0.99555514  0.63886695    -0.03100
C381        C  0.33119008  0.02793744  0.64655969     0.06800
C382        C  0.35914267  0.03025961  0.67276686    -0.03300
Br383      Br  0.37659562  0.07212141  0.69321354    -0.01800
Br384      Br  0.41560383  0.50374224  0.71748440    -0.01900
Br385      Br  0.27926100  0.98908079  0.60545528    -0.01900
Br386      Br  0.31452774  0.42280595  0.64434708    -0.01900
C387        C  0.41585696  0.24656820  0.62036696    -0.03000
C388        C  0.40158800  0.27879963  0.61505590     0.06700
C389        C  0.37174808  0.28137644  0.59215270    -0.03100
C390        C  0.35188115  0.25285260  0.58489187    -0.03100
C391        C  0.36344826  0.22125033  0.59605980     0.06800
C392        C  0.39716446  0.21777483  0.60960681    -0.03300
Br393      Br  0.41756012  0.17396628  0.61556334    -0.01800
Br394      Br  0.46049527  0.24101258  0.64225742    -0.01900
Br395      Br  0.30873987  0.25664026  0.55909233    -0.01900
Br396      Br  0.35771585  0.32292548  0.56846069    -0.01900
C397        C  0.04798983  0.33182773  0.58371139    -0.03000
C398        C  0.02981793  0.36258474  0.58446703     0.06700
C399        C  0.03131153  0.38373808  0.55228874    -0.03100
C400        C  0.04780871  0.37289751  0.51897523    -0.03100
C401        C  0.06525349  0.34171326  0.51792654     0.06800
C402        C  0.06558207  0.32158020  0.55087802    -0.03300
Br403      Br  0.08994194  0.27944157  0.55181985    -0.01800
Br404      Br  0.05004935  0.30348532  0.62810390    -0.01900
Br405      Br  0.04237803  0.39963387  0.47357710    -0.01900
Br406      Br  0.00946522  0.42725330  0.55186466    -0.01900
C407        C  0.35853489  0.30380091  0.81190509    -0.03000
C408        C  0.38366191  0.28978153  0.83577173     0.06700
C409        C  0.41778059  0.29993001  0.83065292    -0.03100
C410        C  0.42691521  0.32049111  0.79973975    -0.03100
C411        C  0.40241839  0.32998703  0.77213603     0.06800
C412        C  0.36763141  0.32395522  0.78060532    -0.03300
Br413      Br  0.33144059  0.34444352  0.75158072    -0.01800
Br414      Br  0.31092445  0.29684472  0.82283066    -0.01900
Br415      Br  0.47322366  0.33692717  0.79789019    -0.01900
Br416      Br  0.45311668  0.28475981  0.86453511    -0.01900
O417        O  0.39526210  0.83416514  0.63541041    -0.82900
C418        C  0.99447509  0.91165112  0.70908678     0.96400
O419        O  0.99703686  0.88007148  0.70278873    -0.72100
O420        O  0.44435045  0.84367847  0.72545954    -0.75600
Al421      Al  0.46605076  0.84763852  0.67795264     1.49000
C422        C  0.41329349  0.84348285  0.73411081     0.91700
O423        O  0.38394453  0.91437268  0.68669368    -0.81900
O424        O  0.44032656  0.90731199  0.59498861    -0.75400
Al425      Al  0.39361926  0.87403809  0.66106276     1.90100
O426        O  0.41715496  0.94557495  0.65249933    -0.74500
O427        O  0.99962786  0.89967476  0.62707471    -0.74300
O428        O  0.47359475  0.92949295  0.69088365    -0.80000
O429        O  0.99039427  0.84633175  0.63193962    -0.78200
O430        O  0.43839060  0.87959303  0.66143389    -1.14300
O431        O  0.44079560  0.80994782  0.65614462    -0.73500
C432        C  0.41401293  0.80910729  0.63620910     0.97200
C433        C  0.39033069  0.94199544  0.67152378     0.93600
Al434      Al  0.45610367  0.91744444  0.64328918     1.55600
O435        O  0.39169171  0.85250504  0.70976609    -0.78200
C436        C  0.00583677  0.87005021  0.61635336     0.97700
C437        C  0.41011886  0.90072697  0.58614021     0.92600
O438        O  0.38795573  0.89374033  0.61100774    -0.83500
O439        O  0.07658859  0.84857600  0.38612972    -0.82900
C440        C  0.15177208  0.74771080  0.46051487     0.96400
O441        O  0.11978349  0.74655610  0.45382496    -0.72100
O442        O  0.08032794  0.79910544  0.47300523    -0.75600
Al443      Al  0.08825349  0.77673278  0.42619069     1.49000
C444        C  0.08140139  0.82978573  0.48196170     0.91700
O445        O  0.15764354  0.85703634  0.43904175    -0.81900
O446        O  0.15158156  0.80274702  0.34615969    -0.75400
Al447      Al  0.11707980  0.84859662  0.41220419     1.90100
O448        O  0.18940460  0.82403308  0.40551623    -0.74500
O449        O  0.14307817  0.74323476  0.37688351    -0.74300
O450        O  0.17089546  0.76763668  0.44251585    -0.80000
O451        O  0.08893722  0.75086838  0.38099871    -0.78200
O452        O  0.12167400  0.80392965  0.41169023    -1.14300
O453        O  0.05213103  0.80162379  0.40088243    -0.73500
C454        C  0.05156837  0.82956498  0.38375702     0.97200
C455        C  0.18590012  0.85044110  0.42491245     0.93600
Al456      Al  0.16038896  0.78609076  0.39467302     1.55600
O457        O  0.09490695  0.85072203  0.45995622    -0.78200
C458        C  0.11349295  0.73579845  0.36626707     0.97700
C459        C  0.14465382  0.83270621  0.33754191     0.92600
O460        O  0.13765140  0.85443896  0.36273921    -0.83500
O461        O  0.09064380  0.66352725  0.13808434    -0.82900
C462        C  0.48620137  0.58826351  0.20751962     0.96400
O463        O  0.48599092  0.62027220  0.20317690    -0.72100
O464        O  0.04084899  0.65691796  0.22756893    -0.75600
Al465      Al  0.01853501  0.65222995  0.17922832     1.49000
C466        C  0.07232062  0.65696170  0.23498606     0.91700
O467        O  0.09817831  0.58268000  0.18959668    -0.81900
O468        O  0.04420766  0.59219379  0.09610546    -0.75400
Al469      Al  0.09063368  0.62339799  0.16361761     1.90100
O470        O  0.06468436  0.55298472  0.15382487    -0.74500
O471        O  0.48415326  0.60076812  0.12696633    -0.74300
O472        O  0.50854056  0.57078701  0.19102372    -0.80000
O473        O  0.49329459  0.65400280  0.13280286    -0.78200
O474        O  0.04558847  0.61953598  0.16295814    -1.14300
O475        O  0.04503919  0.68881838  0.15712595    -0.73500
C476        C  0.07231851  0.68901023  0.13812048     0.97200
C477        C  0.09087453  0.55525072  0.17420715     0.93600
Al478      Al  0.02714858  0.58234893  0.14399281     1.55600
O479        O  0.09307703  0.64506204  0.21146125    -0.78200
C480        C  0.47737056  0.63038364  0.11716304     0.97700
C481        C  0.07486194  0.59797785  0.08833341     0.92600
O482        O  0.09669550  0.60339089  0.11408862    -0.83500
O483        O  0.41837110  0.65488139  0.90837080    -0.82900
C484        C  0.33320982  0.75797360  0.95811786     0.96400
O485        O  0.36258267  0.74687021  0.96687712    -0.72100
O486        O  0.40865880  0.69642113  0.97258195    -0.75600
Al487      Al  0.39506149  0.72594990  0.93193859     1.49000
C488        C  0.39680300  0.66957485  0.98647521     0.91700
O489        O  0.32465232  0.64126942  0.91813917    -0.81900
O490        O  0.32563959  0.68448949  0.85023191    -0.75400
Al491      Al  0.37050789  0.65396564  0.91461692     1.90100
O492        O  0.29663768  0.68825510  0.92012221    -0.74500
O493        O  0.35143974  0.74319133  0.85738580    -0.74300
O494        O  0.32040289  0.75021779  0.92659698    -0.80000
O495        O  0.38959234  0.76221691  0.89622719    -0.78200
O496        O  0.36384292  0.69842702  0.91285867    -1.14300
O497        O  0.42946584  0.70770642  0.89748635    -0.73500
C498        C  0.43648920  0.67676111  0.89267483     0.97200
C499        C  0.29691140  0.65658230  0.91928624     0.93600
Al500      Al  0.32692657  0.71518488  0.89084953     1.55600
O501        O  0.37443540  0.65303920  0.96862926    -0.78200
C502        C  0.37448938  0.76398703  0.86485984     0.97700
C503        C  0.34649937  0.66270212  0.83963417     0.92600
O504        O  0.36781186  0.65041625  0.86201531    -0.83500
O505        O  0.15946536  0.59148186  0.88094488    -0.82900
C506        C  0.07390409  0.99653573  0.81025968     0.96400
O507        O  0.10559292  0.99273653  0.81638775    -0.72100
O508        O  0.13883469  0.54445327  0.78664789    -0.75600
Al509      Al  0.14027525  0.52446962  0.83524263     1.49000
C510        C  0.14586163  0.57480009  0.78000916     0.91700
O511        O  0.07944948  0.60980829  0.82972217    -0.81900
O512        O  0.08411759  0.55421937  0.92144931    -0.75400
Al513      Al  0.11938313  0.59713159  0.85477907     1.90100
O514        O  0.04610043  0.57797104  0.86348208    -0.74500
O515        O  0.09024896  0.99505489  0.89097210    -0.74300
O516        O  0.05814338  0.02018194  0.82645211    -0.80000
O517        O  0.14466117  0.00193339  0.88271016    -0.78200
O518        O  0.11060830  0.55345365  0.85409582    -1.14300
O519        O  0.18149173  0.55029894  0.84853417    -0.73500
C520        C  0.18489653  0.57615156  0.86928181     0.97200
C521        C  0.05123785  0.60457741  0.84473627     0.93600
Al522      Al  0.07249942  0.53812298  0.87367166     1.55600
O523        O  0.14104568  0.59696993  0.80533486    -0.78200
C524        C  0.12054978  0.98781454  0.90003131     0.97700
C525        C  0.09239805  0.58378820  0.92985107     0.92600
O526        O  0.10028405  0.60496879  0.90461300    -0.83500
O527        O  0.33621683  0.58465621  0.63083384    -0.82900
C528        C  0.23434855  0.66372132  0.56107589     0.96400
O529        O  0.23511322  0.63156726  0.56161375    -0.72100
O530        O  0.29085495  0.59779681  0.53677781    -0.75600
Al531      Al  0.26692260  0.59821316  0.58392205     1.49000
C532        C  0.32252003  0.59576434  0.53185565     0.91700
O533        O  0.34632296  0.66569925  0.58175083    -0.81900
O534        O  0.29205270  0.65330294  0.67482064    -0.75400
Al535      Al  0.33816956  0.62492414  0.60635896     1.90100
O536        O  0.31278574  0.69531866  0.61785092    -0.74500
O537        O  0.23276349  0.64437046  0.64395660    -0.74300
O538        O  0.25508330  0.67995771  0.58138624    -0.80000
O539        O  0.23984690  0.59254108  0.62716190    -0.78200
O540        O  0.29318275  0.62941228  0.60534088    -1.14300
O541        O  0.29329449  0.55989693  0.60407097    -0.73500
C542        C  0.31883493  0.55888255  0.62627127     0.97200
C543        C  0.33927244  0.69289340  0.59770029     0.93600
Al544      Al  0.27470800  0.66529138  0.62726049     1.55600
O545        O  0.34222992  0.60410101  0.55825082    -0.78200
C546        C  0.22526698  0.61370215  0.64771548     0.97700
C547        C  0.32284790  0.64844074  0.68239756     0.92600
O548        O  0.34432404  0.64400705  0.65631508    -0.83500
O549        O  0.32648502  0.90622041  0.37884560    -0.82900
C550        C  0.40179452  0.50728206  0.30676862     0.96400
O551        O  0.36982132  0.50875337  0.31323756    -0.72100
O552        O  0.33003280  0.95698836  0.29272477    -0.75600
Al553      Al  0.33814186  0.97849627  0.34019032     1.49000
C554        C  0.33112306  0.92641270  0.28341408     0.91700
O555        O  0.40756098  0.89847941  0.32613729    -0.81900
O556        O  0.40130721  0.95143571  0.42003028    -0.75400
Al557      Al  0.36692776  0.90650186  0.35286903     1.90100
O558        O  0.43912230  0.93064324  0.36114515    -0.74500
O559        O  0.39319087  0.51132446  0.38954879    -0.74300
O560        O  0.42080997  0.48707130  0.32455673    -0.80000
O561        O  0.33905501  0.50359690  0.38571956    -0.78200
O562        O  0.37153116  0.95104476  0.35432939    -1.14300
O563        O  0.30189443  0.95333939  0.36499676    -0.73500
C564        C  0.30152639  0.92525172  0.38183008     0.97200
C565        C  0.43568057  0.90463736  0.34108535     0.93600
Al566      Al  0.41027573  0.96851617  0.37196094     1.55600
O567        O  0.34474094  0.90522381  0.30511495    -0.78200
C568        C  0.36372065  0.51876899  0.40023031     0.97700
C569        C  0.39461444  0.92123862  0.42781614     0.92600
O570        O  0.38759448  0.89991078  0.40216697    -0.83500
O571        O  0.14459374  0.91356200  0.12858358    -0.82900
C572        C  0.24790480  0.84125856  0.05606773     0.96400
O573        O  0.24821473  0.87317083  0.06105177    -0.72100
O574        O  0.19374664  0.90919705  0.03915243    -0.75600
Al575      Al  0.21627238  0.90422903  0.08673265     1.49000
C576        C  0.16245589  0.90869109  0.03147761     0.91700
O577        O  0.13807588  0.83262386  0.07679196    -0.81900
O578        O  0.19251917  0.84400177  0.17020834    -0.75400
Al579      Al  0.14505845  0.87372121  0.10269765     1.90100
O580        O  0.17219782  0.80375733  0.11258683    -0.74500
O581        O  0.25201923  0.85340375  0.13865348    -0.74300
O582        O  0.22839697  0.82255065  0.07515169    -0.80000
O583        O  0.24154227  0.90630462  0.13236790    -0.78200
O584        O  0.19014987  0.87076399  0.10296175    -1.14300
O585        O  0.18958513  0.93998625  0.11001424    -0.73500
C586        C  0.16258137  0.93920145  0.12941419     0.97200
C587        C  0.14555848  0.80550873  0.09276743     0.93600
Al588      Al  0.20952820  0.83399724  0.12207665     1.55600
O589        O  0.14176086  0.89578540  0.05453184    -0.78200
C590        C  0.25744055  0.88325103  0.14868035     0.97700
C591        C  0.16180678  0.84886937  0.17831334     0.92600
O592        O  0.13971395  0.85364749  0.15261139    -0.83500
C593        C  0.29634952  0.88387474  0.24755738    -0.03000
C594        C  0.31465715  0.91450167  0.24762640     0.06700
C595        C  0.31612581  0.93345610  0.21384601    -0.03100
C596        C  0.29938660  0.92206669  0.18077979    -0.03100
C597        C  0.28078300  0.89160310  0.18088157     0.06800
C598        C  0.28098914  0.87176890  0.21413115    -0.03300
Br599      Br  0.25945580  0.82816594  0.21571943    -0.01800
Br600      Br  0.28780026  0.86013642  0.29442092    -0.01900
Br601      Br  0.30367094  0.94777019  0.13465218    -0.01900
Br602      Br  0.34052829  0.97548622  0.21227877    -0.01900
C603        C  0.31906054  0.58444655  0.46120205    -0.03000
C604        C  0.33688403  0.58149985  0.49583992     0.06700
C605        C  0.36782586  0.56301878  0.49609081    -0.03100
C606        C  0.37831623  0.54500943  0.46365032    -0.03100
C607        C  0.35763865  0.54414143  0.43085567     0.06800
C608        C  0.32898638  0.56550006  0.42922182    -0.03300
Br609      Br  0.30390950  0.57018588  0.38245320    -0.01800
Br610      Br  0.28232516  0.61619582  0.45629028    -0.01900
Br611      Br  0.42055069  0.02030854  0.46595851    -0.01900
Br612      Br  0.39608721  0.56006570  0.54096354    -0.01900
C613        C  0.10903508  0.96413534  0.96565681    -0.03000
C614        C  0.12810305  0.96359420  0.93166044     0.06700
C615        C  0.15649645  0.94182502  0.92955332    -0.03100
C616        C  0.16710901  0.92304483  0.96148891    -0.03100
C617        C  0.14953325  0.92558433  0.99625187     0.06800
C618        C  0.12036126  0.94636944  0.99793064    -0.03300
Br619      Br  0.09764860  0.95427022  0.04566576    -0.01800
Br620      Br  0.06763618  0.98990510  0.96972414    -0.01900
Br621      Br  0.20582136  0.89359152  0.95705466    -0.01900
Br622      Br  0.17992430  0.93582720  0.88204126    -0.01900
C623        C  0.20577450  0.57032852  0.69554388    -0.03000
C624        C  0.20100243  0.60203866  0.67790258     0.06700
C625        C  0.17452042  0.62294234  0.69149582    -0.03100
C626        C  0.15529696  0.61349554  0.72368480    -0.03100
C627        C  0.16300472  0.58365141  0.74358512     0.06800
C628        C  0.18872645  0.56238276  0.72928732    -0.03300
Br629      Br  0.20451838  0.52385379  0.75780939    -0.01800
Br630      Br  0.23570119  0.53640954  0.67501448    -0.01900
Br631      Br  0.11770081  0.64107655  0.73976106    -0.01900
Br632      Br  0.16234997  0.66326979  0.66441014    -0.01900
C633        C  0.32697885  0.80466094  0.00808547    -0.03000
C634        C  0.31217052  0.78028590  0.98373049     0.06700
C635        C  0.27598061  0.77899070  0.98167563    -0.03100
C636        C  0.25574595  0.80178431  0.00217011    -0.03100
C637        C  0.27047619  0.82430524  0.02804595     0.06800
C638        C  0.30622050  0.82578458  0.03086390    -0.03300
Br639      Br  0.32668763  0.85573816  0.06727242    -0.01800
Br640      Br  0.37552000  0.81044062  0.00967561    -0.01900
Br641      Br  0.20706247  0.80285456  0.99421685    -0.01900
Br642      Br  0.25210148  0.74453090  0.95380417    -0.01900
C643        C  0.32355632  0.62898650  0.78673335    -0.03000
C644        C  0.34649547  0.65322708  0.79988076     0.06700
C645        C  0.36528179  0.67275166  0.77438386    -0.03100
C646        C  0.35829760  0.67070365  0.73556091    -0.03100
C647        C  0.33346004  0.64809792  0.72226909     0.06800
C648        C  0.31705704  0.62632898  0.74785277    -0.03300
Br649      Br  0.28538346  0.59312522  0.73002437    -0.01800
Br650      Br  0.30080773  0.60006647  0.82223819    -0.01900
Br651      Br  0.37971696  0.70193880  0.70190187    -0.01900
Br652      Br  0.39958934  0.70329124  0.79303035    -0.01900
C653        C  0.26309012  0.60279706  0.92346938    -0.03000
C654        C  0.26567008  0.63677244  0.91138316     0.06700
C655        C  0.24344666  0.64821005  0.88267912    -0.03100
C656        C  0.22176943  0.62558541  0.86435260    -0.03100
C657        C  0.21760993  0.59254459  0.87782793     0.06800
C658        C  0.23837789  0.58115395  0.90748393    -0.03300
Br659      Br  0.23300107  0.53582460  0.92548413    -0.01800
Br660      Br  0.29252195  0.58590286  0.96278603    -0.01900
Br661      Br  0.19940751  0.64003980  0.81864060    -0.01900
Br662      Br  0.24177106  0.69453822  0.86626496    -0.01900
C663        C  0.02791589  0.66146482  0.86179166    -0.03000
C664        C  0.02424027  0.63014301  0.84323482     0.06700
C665        C  0.49236862  0.61966339  0.83176209    -0.03100
C666        C  0.46347867  0.63601430  0.84558457    -0.03100
C667        C  0.46635062  0.66469449  0.86996240     0.06800
C668        C  0.49902556  0.67858232  0.87563512    -0.03300
Br669      Br  0.00503017  0.71749194  0.90760074    -0.01800
Br670      Br  0.07252035  0.67966858  0.87123305    -0.01900
Br671      Br  0.42161901  0.61563662  0.83090117    -0.01900
Br672      Br  0.48919344  0.58100573  0.79831191    -0.01900
C673        C  0.42272520  0.56427004  0.28609826    -0.03000
C674        C  0.41819120  0.52970369  0.27862407     0.06700
C675        C  0.43305324  0.51561335  0.24621366    -0.03100
C676        C  0.45189618  0.53576841  0.22119807    -0.03100
C677        C  0.45979956  0.56978561  0.23044318     0.06800
C678        C  0.44321554  0.58434189  0.26210586    -0.03300
Br679      Br  0.44762948  0.63157616  0.27317707    -0.01800
Br680      Br  0.40337537  0.58332028  0.33141139    -0.01900
Br681      Br  0.46306655  0.51658365  0.17244381    -0.01900
Br682      Br  0.42865674  0.96801093  0.23688787    -0.01900
C683        C  0.42709489  0.62476987  0.02391003    -0.03000
C684        C  0.41155943  0.65672179  0.02264738     0.06700
C685        C  0.41389835  0.67784295  0.05463735    -0.03100
C686        C  0.43322304  0.66814390  0.08656926    -0.03100
C687        C  0.45173351  0.63756209  0.08649650     0.06800
C688        C  0.44726898  0.61529404  0.05531684    -0.03300
Br689      Br  0.47024042  0.57240721  0.05308907    -0.01800
Br690      Br  0.42298647  0.59453507  0.98124851    -0.01900
Br691      Br  0.43265620  0.69658515  0.13095954    -0.01900
Br692      Br  0.38989888  0.72011179  0.05494596    -0.01900
C693        C  0.13454441  0.74435206  0.08506873    -0.03000
C694        C  0.12185281  0.77653806  0.09249885     0.06700
C695        C  0.08837503  0.77988328  0.10656686    -0.03100
C696        C  0.07084285  0.75144624  0.12047711    -0.03100
C697        C  0.08536765  0.71904630  0.11680108     0.06800
C698        C  0.11533452  0.71585196  0.09435760    -0.03300
Br699      Br  0.13068467  0.67334244  0.07380123    -0.01800
Br700      Br  0.17904467  0.73927538  0.06288175    -0.01900
Br701      Br  0.02793708  0.75817335  0.14578342    -0.01900
Br702      Br  0.06698875  0.82341740  0.10975353    -0.01900
C703        C  0.16600295  0.50003638  0.15228240    -0.03000
C704        C  0.14947731  0.96837741  0.15204448     0.06700
C705        C  0.11811995  0.96543869  0.17209951    -0.03100
C706        C  0.10009441  0.99436112  0.18257223    -0.03100
C707        C  0.11405338  0.52617566  0.17623293     0.06800
C708        C  0.14821765  0.52891106  0.16439208    -0.03300
Br709      Br  0.17027038  0.57214559  0.16171047    -0.01800
Br710      Br  0.21283624  0.50447339  0.13700951    -0.01900
Br711      Br  0.05558048  0.99078182  0.20527402    -0.01900
Br712      Br  0.09881944  0.92274791  0.18739426    -0.01900
C713        C  0.06518481  0.61915287  0.02365175    -0.03000
C714        C  0.08443919  0.59896132  0.04836047     0.06700
C715        C  0.10975161  0.57759055  0.03394118    -0.03100
C716        C  0.11442444  0.57521204  0.99468006    -0.03100
C717        C  0.09269519  0.59281861  0.96997138     0.06800
C718        C  0.06810239  0.61478973  0.98452589    -0.03300
Br719      Br  0.03501965  0.63500253  0.95180493    -0.01800
Br720      Br  0.03480753  0.65300347  0.04335247    -0.01900
Br721      Br  0.14944050  0.54645991  0.97454073    -0.01900
Br722      Br  0.13582894  0.54927104  0.06717790    -0.01900
C723        C  0.17193399  0.69029899  0.48133208    -0.03000
C724        C  0.16803537  0.72491667  0.48885209     0.06700
C725        C  0.18312106  0.73846242  0.52157080    -0.03100
C726        C  0.20181696  0.71783792  0.54660002    -0.03100
C727        C  0.20904590  0.68357574  0.53735106     0.06800
C728        C  0.19229160  0.66972209  0.50514962    -0.03300
Br729      Br  0.19632443  0.62269985  0.49265676    -0.01800
Br730      Br  0.15111871  0.67162163  0.43648846    -0.01900
Br731      Br  0.21397764  0.73713847  0.59513459    -0.01900
Br732      Br  0.17869684  0.78602799  0.53168596    -0.01900
C733        C  0.11549365  0.69317219  0.26933336    -0.03000
C734        C  0.08573050  0.67306076  0.27049791     0.06700
C735        C  0.06874552  0.66956001  0.30541189    -0.03100
C736        C  0.07899803  0.68852584  0.33739600    -0.03100
C737        C  0.10708593  0.71063264  0.33535172     0.06800
C738        C  0.12653530  0.71101602  0.30173237    -0.03300
Br739      Br  0.16775795  0.73714815  0.29841826    -0.01800
Br740      Br  0.14056191  0.69900857  0.22272180    -0.01900
Br741      Br  0.05540013  0.68269459  0.38476028    -0.01900
Br742      Br  0.03270680  0.63716780  0.31032657    -0.01900
C743        C  0.49646857  0.89151117  0.33002585    -0.03000
C744        C  0.46392762  0.88012762  0.33912261     0.06700
C745        C  0.45991139  0.84714596  0.35336251    -0.03100
C746        C  0.98844932  0.82897920  0.36659623    -0.03100
C747        C  0.02142755  0.84251196  0.36206068     0.06800
C748        C  0.02498798  0.87190475  0.33925450    -0.03300
Br749      Br  0.06817863  0.88620320  0.31896763    -0.01800
Br750      Br  0.50167853  0.93445919  0.30522691    -0.01900
Br751      Br  0.98108503  0.78699442  0.39271863    -0.01900
Br752      Br  0.41540214  0.82724347  0.35749060    -0.01900
C753        C  0.23896620  0.92652747  0.40138619    -0.03000
C754        C  0.27176978  0.91213451  0.40400084     0.06700
C755        C  0.27546644  0.88224119  0.42600388    -0.03100
C756        C  0.24682888  0.86326654  0.43613437    -0.03100
C757        C  0.21430662  0.87486006  0.42721191     0.06800
C758        C  0.21039598  0.90821005  0.41403896    -0.03300
Br759      Br  0.16610623  0.92883284  0.41205007    -0.01800
Br760      Br  0.23209216  0.97066867  0.38008855    -0.01900
Br761      Br  0.25159841  0.82136699  0.46319112    -0.01900
Br762      Br  0.31899732  0.86653011  0.44422526    -0.01900
C763        C  0.16586071  0.86678100  0.28294280    -0.03000
C764        C  0.14439902  0.84157724  0.29714310     0.06700
C765        C  0.12464916  0.82214009  0.27196183    -0.03100
C766        C  0.12980880  0.82466300  0.23281484    -0.03100
C767        C  0.15236134  0.84885606  0.21855937     0.06800
C768        C  0.16895232  0.87112192  0.24364421    -0.03300
Br769      Br  0.19603111  0.90754812  0.22411116    -0.01800
Br770      Br  0.19305677  0.89353023  0.31682280    -0.01900
Br771      Br  0.10891356  0.79242126  0.19958600    -0.01900
Br772      Br  0.08977080  0.79266417  0.29106070    -0.01900
C773        C  0.05001550  0.93799222  0.72769252    -0.03000
C774        C  0.01651373  0.92896011  0.73715581     0.06700
C775        C  0.00219125  0.94139339  0.77076929    -0.03100
C776        C  0.02120594  0.96235387  0.79515079    -0.03100
C777        C  0.05462390  0.97253175  0.78532165     0.06800
C778        C  0.06882189  0.96007074  0.75122143    -0.03300
Br779      Br  0.11260352  0.47575964  0.73409532    -0.01800
Br780      Br  0.56918112  0.92207698  0.68068401    -0.01900
Br781      Br  0.00082209  0.97593671  0.84243489    -0.01900
Br782      Br  0.95574907  0.93014606  0.78276127    -0.01900
C783        C  0.41857761  0.88054658  0.52053253    -0.03000
C784        C  0.40134621  0.90184716  0.54593767     0.06700
C785        C  0.38004921  0.92729761  0.53213280    -0.03100
C786        C  0.37485580  0.93066010  0.49318969    -0.03100
C787        C  0.39445017  0.91156707  0.46777700     0.06800
C788        C  0.41617762  0.88630186  0.48146634    -0.03300
Br789      Br  0.44554203  0.86226793  0.44765842    -0.01800
Br790      Br  0.44684207  0.84456100  0.53933695    -0.01900
Br791      Br  0.34079144  0.96151682  0.47481452    -0.01900
Br792      Br  0.36291581  0.96133164  0.56540831    -0.01900
C793        C  0.37636478  0.00120547  0.68454355    -0.03000
C794        C  0.36544884  0.96970863  0.67242798     0.06700
C795        C  0.33405525  0.96667677  0.65335050    -0.03100
C796        C  0.31761017  0.49547915  0.63889592    -0.03100
C797        C  0.33106314  0.52787213  0.64661466     0.06800
C798        C  0.35895571  0.53022489  0.67288639    -0.03300
Br799      Br  0.37615111  0.57209934  0.69354589    -0.01800
Br800      Br  0.41565686  0.00366392  0.71750853    -0.01900
Br801      Br  0.27921485  0.48897400  0.60544651    -0.01900
Br802      Br  0.31453954  0.92287724  0.64431671    -0.01900
C803        C  0.41587598  0.74646401  0.62039292    -0.03000
C804        C  0.40159070  0.77870520  0.61518330     0.06700
C805        C  0.37174894  0.78131239  0.59228773    -0.03100
C806        C  0.35188535  0.75279844  0.58496242    -0.03100
C807        C  0.36347416  0.72117428  0.59601926     0.06800
C808        C  0.39721092  0.71768639  0.60949747    -0.03300
Br809      Br  0.41768239  0.67387523  0.61511088    -0.01800
Br810      Br  0.46047960  0.74086637  0.64235166    -0.01900
Br811      Br  0.30873694  0.75662391  0.55918420    -0.01900
Br812      Br  0.35772973  0.82288874  0.56865835    -0.01900
C813        C  0.04791775  0.83184337  0.58370767    -0.03000
C814        C  0.02977345  0.86261723  0.58444921     0.06700
C815        C  0.03128152  0.88375501  0.55226067    -0.03100
C816        C  0.04778604  0.87289641  0.51895962    -0.03100
C817        C  0.06521676  0.84170313  0.51792808     0.06800
C818        C  0.06549549  0.82156366  0.55087677    -0.03300
Br819      Br  0.08972643  0.77935189  0.55181106    -0.01800
Br820      Br  0.04995730  0.80351948  0.62811827    -0.01900
Br821      Br  0.04235808  0.89960935  0.47354329    -0.01900
Br822      Br  0.00942731  0.92726585  0.55179954    -0.01900
C823        C  0.35870550  0.80402303  0.81216846    -0.03000
C824        C  0.38385437  0.78999293  0.83599560     0.06700
C825        C  0.41795177  0.80022762  0.83091928    -0.03100
C826        C  0.42706430  0.82075574  0.79996684    -0.03100
C827        C  0.40255493  0.83017025  0.77234224     0.06800
C828        C  0.36777699  0.82417081  0.78086031    -0.03300
Br829      Br  0.33157035  0.84470306  0.75190212    -0.01800
Br830      Br  0.31110808  0.79712706  0.82320351    -0.01900
Br831      Br  0.47332755  0.83729691  0.79808393    -0.01900
Br832      Br  0.45326512  0.78529925  0.86496843    -0.01900
O833        O  0.89527404  0.33416284  0.63542214    -0.82900
C834        C  0.49449172  0.41163461  0.70911010     0.96400
O835        O  0.49705062  0.38005521  0.70280934    -0.72100
O836        O  0.94435191  0.34366378  0.72546965    -0.75600
Al837      Al  0.96606043  0.34763084  0.67796883     1.49000
C838        C  0.91329446  0.34347246  0.73411933     0.91700
O839        O  0.88395154  0.41437514  0.68669747    -0.81900
O840        O  0.94035170  0.40731419  0.59500708    -0.75400
Al841      Al  0.89363129  0.37403767  0.66107147     1.90100
O842        O  0.91717306  0.44557451  0.65251442    -0.74500
O843        O  0.49964675  0.39966275  0.62710046    -0.74300
O844        O  0.97360591  0.42948371  0.69091306    -0.80000
O845        O  0.49040820  0.34631982  0.63195868    -0.78200
O846        O  0.93840348  0.37958911  0.66145000    -1.14300
O847        O  0.94080823  0.30994356  0.65615072    -0.73500
C848        C  0.91402462  0.30910444  0.63621757     0.97200
C849        C  0.89034210  0.44199714  0.67152753     0.93600
Al850      Al  0.95612177  0.41744116  0.64331273     1.55600
O851        O  0.89169605  0.35250558  0.70977605    -0.78200
C852        C  0.50585405  0.37003867  0.61637684     0.97700
C853        C  0.91014457  0.40073195  0.58615259     0.92600
O854        O  0.88797822  0.39373944  0.61101466    -0.83500
O855        O  0.57659641  0.34856437  0.38615448    -0.82900
C856        C  0.65176439  0.24769311  0.46053609     0.96400
O857        O  0.61977645  0.24653839  0.45384338    -0.72100
O858        O  0.58032781  0.29909084  0.47302575    -0.75600
Al859      Al  0.58825129  0.27671824  0.42620982     1.49000
C860        C  0.58140885  0.32977045  0.48198419     0.91700
O861        O  0.65765369  0.35701280  0.43906557    -0.81900
O862        O  0.65158575  0.30272247  0.34618479    -0.75400
Al863      Al  0.61708840  0.34857820  0.41222790     1.90100
O864        O  0.68941147  0.32400965  0.40553746    -0.74500
O865        O  0.64307454  0.24321201  0.37691112    -0.74300
O866        O  0.67089049  0.26761799  0.44253981    -0.80000
O867        O  0.58893412  0.25085388  0.38101613    -0.78200
O868        O  0.62167604  0.30391135  0.41171219    -1.14300
O869        O  0.55213246  0.30161437  0.40090183    -0.73500
C870        C  0.55157334  0.32955722  0.38377986     0.97200
C871        C  0.68590903  0.35041888  0.42493245     0.93600
Al872      Al  0.66038973  0.28606837  0.39469742     1.55600
O873        O  0.59491770  0.35070533  0.45997963    -0.78200
C874        C  0.61348963  0.23577876  0.36629005     0.97700
C875        C  0.64466238  0.33268266  0.33756775     0.92600
O876        O  0.63766039  0.35441667  0.36276379    -0.83500
O877        O  0.59063500  0.16353643  0.13810126    -0.82900
C878        C  0.98620308  0.08826437  0.20754037     0.96400
O879        O  0.98599053  0.12027298  0.20320027    -0.72100
O880        O  0.54085212  0.15691048  0.22758684    -0.75600
Al881      Al  0.51853018  0.15223119  0.17924953     1.49000
C882        C  0.57232419  0.15694537  0.23500241     0.91700
O883        O  0.59817319  0.08267142  0.18958003    -0.81900
O884        O  0.54417753  0.09220727  0.09610968    -0.75400
Al885      Al  0.59062464  0.12339792  0.16361795     1.90100
O886        O  0.56466920  0.05298733  0.15380978    -0.74500
O887        O  0.98413533  0.10078247  0.12699739    -0.74300
O888        O  0.00854111  0.07078987  0.19104063    -0.80000
O889        O  0.99329139  0.15401340  0.13283082    -0.78200
O890        O  0.54557970  0.11953919  0.16296755    -1.14300
O891        O  0.54502982  0.18882131  0.15715129    -0.73500
C892        C  0.57230831  0.18901860  0.13814565     0.97200
C893        C  0.59086363  0.05524598  0.17418552     0.93600
Al894      Al  0.52713305  0.08235619  0.14400080     1.55600
O895        O  0.59307692  0.14504672  0.21147205    -0.78200
C896        C  0.97735924  0.13039895  0.11719204     0.97700
C897        C  0.57482985  0.09799190  0.08832846     0.92600
O898        O  0.59667059  0.10340508  0.11407730    -0.83500
O899        O  0.91833369  0.15488124  0.90836238    -0.82900
C900        C  0.83319573  0.25797383  0.95814996     0.96400
O901        O  0.86257090  0.24687065  0.96689890    -0.72100
O902        O  0.90864736  0.19642158  0.97258392    -0.75600
Al903      Al  0.89503876  0.22595096  0.93194852     1.49000
C904        C  0.89679322  0.16957897  0.98648617     0.91700
O905        O  0.82461666  0.14127509  0.91817529    -0.81900
O906        O  0.82559754  0.18450737  0.85025573    -0.75400
Al907      Al  0.87047300  0.15396777  0.91463354     1.90100
O908        O  0.79660926  0.18826430  0.92015165    -0.74500
O909        O  0.85140270  0.24320525  0.85741142    -0.74300
O910        O  0.82037984  0.25022142  0.92663260    -0.80000
O911        O  0.88956607  0.26222133  0.89624453    -0.78200
O912        O  0.86381286  0.19843098  0.91287610    -1.14300
O913        O  0.92943036  0.20770794  0.89748456    -0.73500
C914        C  0.93644943  0.17676303  0.89266550     0.97200
C915        C  0.79687767  0.15659184  0.91931811     0.93600
Al916      Al  0.82689418  0.21519515  0.89087745     1.55600
O917        O  0.87442121  0.15304222  0.96864742    -0.78200
C918        C  0.87446047  0.26399392  0.86487962     0.97700
C919        C  0.84644731  0.16271258  0.83965440     0.92600
O920        O  0.86775571  0.15041462  0.86203304    -0.83500
O921        O  0.65940772  0.09150414  0.88094484    -0.82900
C922        C  0.57393403  0.49652741  0.81026269     0.96400
O923        O  0.60562178  0.49272289  0.81639404    -0.72100
O924        O  0.63880305  0.04446857  0.78664435    -0.75600
Al925      Al  0.64024649  0.02448414  0.83523802     1.49000
C926        C  0.64582947  0.07481477  0.78000493     0.91700
O927        O  0.57939523  0.10979638  0.82970214    -0.81900
O928        O  0.58408038  0.05421822  0.92144154    -0.75400
Al929      Al  0.61933001  0.09713866  0.85476929     1.90100
O930        O  0.54605583  0.07795935  0.86347453    -0.74500
O931        O  0.59027698  0.49504814  0.89097124    -0.74300
O932        O  0.55817845  0.52018124  0.82644742    -0.80000
O933        O  0.64468987  0.50192235  0.88271687    -0.78200
O934        O  0.61056984  0.05345819  0.85408890    -1.14300
O935        O  0.68145402  0.05032637  0.84854153    -0.73500
C936        C  0.68484606  0.07617999  0.86929157     0.97200
C937        C  0.55118647  0.10456371  0.84472277     0.93600
Al938      Al  0.57246484  0.03811782  0.87366415     1.55600
O939        O  0.64100572  0.09698360  0.80532947    -0.78200
C940        C  0.62057625  0.48780648  0.90003687     0.97700
C941        C  0.59234752  0.08379139  0.92984082     0.92600
O942        O  0.60022039  0.10497406  0.90459972    -0.83500
O943        O  0.83621425  0.08465471  0.63084375    -0.82900
C944        C  0.73435252  0.16371889  0.56108400     0.96400
O945        O  0.73511424  0.13156529  0.56162664    -0.72100
O946        O  0.79085241  0.09778797  0.53679328    -0.75600
Al947      Al  0.76692011  0.09821339  0.58393636     1.49000
C948        C  0.82251732  0.09575393  0.53187070     0.91700
O949        O  0.84632811  0.16569745  0.58176279    -0.81900
O950        O  0.79204696  0.15330721  0.67482467    -0.75400
Al951      Al  0.83816962  0.12492225  0.60637014     1.90100
O952        O  0.81279010  0.19531906  0.61785856    -0.74500
O953        O  0.73276020  0.14438096  0.64395784    -0.74300
O954        O  0.75509231  0.17995686  0.58138579    -0.80000
O955        O  0.73984435  0.09254950  0.62717685    -0.78200
O956        O  0.79318302  0.12941269  0.60535008    -1.14300
O957        O  0.79328634  0.05989973  0.60408744    -0.73500
C958        C  0.81882813  0.05888389  0.62628448     0.97200
C959        C  0.83927802  0.19289250  0.59771060     0.93600
Al960      Al  0.77470946  0.16529481  0.62726397     1.55600
O961        O  0.84222948  0.10409826  0.55826141    -0.78200
C962        C  0.72526166  0.11371370  0.64772320     0.97700
C963        C  0.82283991  0.14843894  0.68240661     0.92600
O964        O  0.84432005  0.14400330  0.65632817    -0.83500
O965        O  0.82648953  0.40622026  0.37885775    -0.82900
C966        C  0.90179490  0.00728589  0.30677963     0.96400
O967        O  0.86982179  0.00875771  0.31324514    -0.72100
O968        O  0.83003275  0.45697566  0.29273163    -0.75600
Al969      Al  0.83814002  0.47849241  0.34018974     1.49000
C970        C  0.83112996  0.42639954  0.28342505     0.91700
O971        O  0.90757010  0.39847944  0.32615590    -0.81900
O972        O  0.90131130  0.45145552  0.42003313    -0.75400
Al973      Al  0.86693467  0.40650338  0.35288378     1.90100
O974        O  0.93912690  0.43065450  0.36115440    -0.74500
O975        O  0.89319259  0.01131420  0.38956259    -0.74300
O976        O  0.92080955  0.98707313  0.32456539    -0.80000
O977        O  0.83905591  0.00359487  0.38572318    -0.78200
O978        O  0.87153276  0.45104690  0.35433311    -1.14300
O979        O  0.80189397  0.45333526  0.36500306    -0.73500
C980        C  0.80152776  0.42524842  0.38183851     0.97200
C981        C  0.93568874  0.40464334  0.34110301     0.93600
Al982      Al  0.91027618  0.46852648  0.37195693     1.55600
O983        O  0.84475107  0.40521505  0.30512881    -0.78200
C984        C  0.86372217  0.01876051  0.40024158     0.97700
C985        C  0.89462334  0.42125866  0.42782731     0.92600
O986        O  0.88760066  0.39992565  0.40218429    -0.83500
O987        O  0.64460088  0.41357177  0.12862414    -0.82900
C988        C  0.74789986  0.34126516  0.05609024     0.96400
O989        O  0.74821399  0.37317613  0.06108060    -0.72100
O990        O  0.69374807  0.40920755  0.03919042    -0.75600
Al991      Al  0.71627561  0.40423233  0.08676688     1.49000
C992        C  0.66245778  0.40870270  0.03151306     0.91700
O993        O  0.63806610  0.33263702  0.07682621    -0.81900
O994        O  0.69252529  0.34399141  0.17023195    -0.75400
Al995      Al  0.64505903  0.37373188  0.10273405     1.90100
O996        O  0.67219151  0.30376113  0.11260711    -0.74500
O997        O  0.75202131  0.35339422  0.13866925    -0.74300
O998        O  0.72838745  0.32255657  0.07516745    -0.80000
O999        O  0.74154729  0.40629762  0.13239923    -0.78200
O1000       O  0.69015004  0.37076812  0.10299236    -1.14300
O1001       O  0.68959562  0.43998959  0.11005385    -0.73500
C1002       C  0.66259321  0.43920832  0.12945512     0.97200
C1003       C  0.64554793  0.30551901  0.09279597     0.93600
Al1004     Al  0.70952627  0.33399538  0.12209622     1.55600
O1005       O  0.64176074  0.39579960  0.05456760    -0.78200
C1006       C  0.75744771  0.38323926  0.14870042     0.97700
C1007       C  0.66181496  0.34886310  0.17834303     0.92600
O1008       O  0.63971933  0.35365429  0.15264695    -0.83500
C1009       C  0.79637205  0.38385111  0.24756601    -0.03000
C1010       C  0.81466979  0.41448401  0.24763735     0.06700
C1011       C  0.81613318  0.43344160  0.21385887    -0.03100
C1012       C  0.79939893  0.42204906  0.18079206    -0.03100
C1013       C  0.78079860  0.39158422  0.18089418     0.06800
C1014       C  0.78101184  0.37174557  0.21413989    -0.03300
Br1015     Br  0.75948813  0.32813751  0.21572195    -0.01800
Br1016     Br  0.78783287  0.36010433  0.29442636    -0.01900
Br1017     Br  0.80368614  0.44774897  0.13466203    -0.01900
Br1018     Br  0.84051574  0.47548337  0.21229522    -0.01900
C1019       C  0.81906463  0.08443729  0.46121679    -0.03000
C1020       C  0.83687896  0.08147976  0.49585940     0.06700
C1021       C  0.86780950  0.06298065  0.49611991    -0.03100
C1022       C  0.87830587  0.04497845  0.46367680    -0.03100
C1023       C  0.85763986  0.04412764  0.43087259     0.06800
C1024       C  0.82899481  0.06549538  0.42923468    -0.03300
Br1025     Br  0.80393603  0.07020096  0.38245695    -0.01800
Br1026     Br  0.78232944  0.11618737  0.45630507    -0.01900
Br1027     Br  0.92056090  0.52034368  0.46592584    -0.01900
Br1028     Br  0.89603850  0.05998344  0.54101416    -0.01900
C1029       C  0.60903930  0.46412057  0.96565668    -0.03000
C1030       C  0.62812547  0.46358950  0.93167226     0.06700
C1031       C  0.65653301  0.44183582  0.92958570    -0.03100
C1032       C  0.66713440  0.42305671  0.96152675    -0.03100
C1033       C  0.64954127  0.42558973  0.99627958     0.06800
C1034       C  0.62036036  0.44636389  0.99793996    -0.03300
Br1035     Br  0.59762883  0.45426594  0.04566337    -0.01800
Br1036     Br  0.56762148  0.48986462  0.96969554    -0.01900
Br1037     Br  0.70585631  0.39361231  0.95711257    -0.01900
Br1038     Br  0.68000401  0.43586071  0.88209622    -0.01900
C1039       C  0.70573858  0.07033348  0.69553139    -0.03000
C1040       C  0.70099003  0.10205544  0.67790761     0.06700
C1041       C  0.67452209  0.12297120  0.69151228    -0.03100
C1042       C  0.65529218  0.11352467  0.72369690    -0.03100
C1043       C  0.66297699  0.08366579  0.74358131     0.06800
C1044       C  0.68867904  0.06238127  0.72926642    -0.03300
Br1045     Br  0.70442497  0.02380910  0.75774733    -0.01800
Br1046     Br  0.73565080  0.03640640  0.67499047    -0.01900
Br1047     Br  0.61771360  0.14112518  0.73978346    -0.01900
Br1048     Br  0.66237838  0.16331959  0.66445016    -0.01900
C1049       C  0.82697293  0.30466967  0.00810724    -0.03000
C1050       C  0.81216255  0.28028314  0.98376907     0.06700
C1051       C  0.77597332  0.27897839  0.98172803    -0.03100
C1052       C  0.75573999  0.30178289  0.00220574    -0.03100
C1053       C  0.77047110  0.32431315  0.02806956     0.06800
C1054       C  0.80621582  0.32579733  0.03088210    -0.03300
Br1055     Br  0.82668562  0.35576375  0.06727523    -0.01800
Br1056     Br  0.87551346  0.31045644  0.00968039    -0.01900
Br1057     Br  0.70705784  0.30285655  0.99424306    -0.01900
Br1058     Br  0.75209489  0.24448552  0.95391057    -0.01900
C1059       C  0.82350561  0.12900314  0.78674496    -0.03000
C1060       C  0.84644049  0.15324576  0.79989802     0.06700
C1061       C  0.86523470  0.17276850  0.77440516    -0.03100
C1062       C  0.85827359  0.17070553  0.73557828    -0.03100
C1063       C  0.83344274  0.14809620  0.72228022     0.06800
C1064       C  0.81702588  0.12633477  0.74786112    -0.03300
Br1065     Br  0.78536177  0.09312466  0.73002234    -0.01800
Br1066     Br  0.80073038  0.10009957  0.82224549    -0.01900
Br1067     Br  0.87972200  0.20191906  0.70191545    -0.01900
Br1068     Br  0.89952075  0.20332807  0.79305914    -0.01900
C1069       C  0.76304800  0.10280832  0.92348546    -0.03000
C1070       C  0.76563115  0.13678801  0.91141466     0.06700
C1071       C  0.74339627  0.14824255  0.88272947    -0.03100
C1072       C  0.72170479  0.12563059  0.86440332    -0.03100
C1073       C  0.71755277  0.09258042  0.87785489     0.06800
C1074       C  0.73832803  0.08117499  0.90749755    -0.03300
Br1075     Br  0.73294326  0.03584255  0.92548595    -0.01800
Br1076     Br  0.79248479  0.08589389  0.96278655    -0.01900
Br1077     Br  0.69930342  0.14012145  0.81872860    -0.01900
Br1078     Br  0.74172281  0.19457818  0.86633958    -0.01900
C1079       C  0.52786861  0.16145184  0.86177882    -0.03000
C1080       C  0.52418741  0.13012751  0.84322804     0.06700
C1081       C  0.99231720  0.11965209  0.83176660    -0.03100
C1082       C  0.96343006  0.13602334  0.84556532    -0.03100
C1083       C  0.96630681  0.16469945  0.86994688     0.06800
C1084       C  0.99898355  0.17857998  0.87562464    -0.03300
Br1085     Br  0.50499635  0.21747068  0.90760825    -0.01800
Br1086     Br  0.57247457  0.17965740  0.87120574    -0.01900
Br1087     Br  0.92156223  0.11569831  0.83082191    -0.01900
Br1088     Br  0.98913173  0.08096601  0.79835856    -0.01900
C1089       C  0.92272514  0.06427235  0.28611368    -0.03000
C1090       C  0.91819191  0.02970661  0.27863837     0.06700
C1091       C  0.93305599  0.01561422  0.24623114    -0.03100
C1092       C  0.95190366  0.03576690  0.22121902    -0.03100
C1093       C  0.95980384  0.06978527  0.23046331     0.06800
C1094       C  0.94321732  0.08434316  0.26212357    -0.03300
Br1095     Br  0.94763209  0.13157721  0.27319741    -0.01800
Br1096     Br  0.90337097  0.08332276  0.33142479    -0.01900
Br1097     Br  0.96308854  0.01657332  0.17247318    -0.01900
Br1098     Br  0.92864817  0.46801537  0.23686067    -0.01900
C1099       C  0.92704865  0.12476847  0.02395764    -0.03000
C1100       C  0.91155148  0.15673792  0.02266545     0.06700
C1101       C  0.91393146  0.17788523  0.05463105    -0.03100
C1102       C  0.93325249  0.16818981  0.08656727    -0.03100
C1103       C  0.95172276  0.13758358  0.08652376     0.06800
C1104       C  0.94722108  0.11529496  0.05536795    -0.03300
Br1105     Br  0.97013890  0.07237824  0.05317513    -0.01800
Br1106     Br  0.92289418  0.09450386  0.98132816    -0.01900
Br1107     Br  0.93273583  0.19667731  0.13092207    -0.01900
Br1108     Br  0.88999710  0.22019077  0.05490216    -0.01900
C1109       C  0.63451743  0.24436629  0.08508015    -0.03000
C1110       C  0.62183673  0.27655274  0.09253184     0.06700
C1111       C  0.58836865  0.27990032  0.10662779    -0.03100
C1112       C  0.57083959  0.25146250  0.12054059    -0.03100
C1113       C  0.58535253  0.21906007  0.11683356     0.06800
C1114       C  0.61530547  0.21586725  0.09436770    -0.03300
Br1115     Br  0.63063306  0.17336083  0.07378276    -0.01800
Br1116     Br  0.67900728  0.23928610  0.06286973    -0.01900
Br1117     Br  0.52796229  0.25819386  0.14590634    -0.01900
Br1118     Br  0.56699603  0.32343864  0.10985814    -0.01900
C1119       C  0.66598887  0.00002444  0.15225690    -0.03000
C1120       C  0.64949551  0.46838643  0.15208539     0.06700
C1121       C  0.61814345  0.46544924  0.17214957    -0.03100
C1122       C  0.60011312  0.49437202  0.18260986    -0.03100
C1123       C  0.61403806  0.02616641  0.17620106     0.06800
C1124       C  0.64820424  0.02889953  0.16436686    -0.03300
Br1125     Br  0.67026134  0.07213227  0.16169450    -0.01800
Br1126     Br  0.71283066  0.00445524  0.13701483    -0.01900
Br1127     Br  0.55559691  0.49079322  0.20530606    -0.01900
Br1128     Br  0.59885929  0.42275997  0.18747286    -0.01900
C1129       C  0.56513502  0.11915603  0.02364357    -0.03000
C1130       C  0.58439720  0.09897086  0.04835198     0.06700
C1131       C  0.60970906  0.07760074  0.03393037    -0.03100
C1132       C  0.61437997  0.07522275  0.99466898    -0.03100
C1133       C  0.59264559  0.09282407  0.96996119     0.06800
C1134       C  0.56805039  0.11479176  0.98451724    -0.03300
Br1135     Br  0.53496512  0.13500126  0.95179715    -0.01800
Br1136     Br  0.53474768  0.15299750  0.04334463    -0.01900
Br1137     Br  0.64940400  0.04648144  0.97452835    -0.01900
Br1138     Br  0.63578404  0.04927614  0.06716422    -0.01900
C1139       C  0.67191309  0.19028200  0.48136348    -0.03000
C1140       C  0.66802484  0.22490211  0.48887478     0.06700
C1141       C  0.68312426  0.23845445  0.52158167    -0.03100
C1142       C  0.70182371  0.21783364  0.54660921    -0.03100
C1143       C  0.70904545  0.18356929  0.53736521     0.06800
C1144       C  0.69227788  0.16970889  0.50517624    -0.03300
Br1145     Br  0.69630394  0.12268356  0.49269228    -0.01800
Br1146     Br  0.65107564  0.17159600  0.43653699    -0.01900
Br1147     Br  0.71399946  0.23714354  0.59513455    -0.01900
Br1148     Br  0.67871645  0.28602437  0.53168153    -0.01900
C1149       C  0.61550832  0.19313583  0.26936387    -0.03000
C1150       C  0.58573753  0.17303475  0.27051954     0.06700
C1151       C  0.56874353  0.16954100  0.30542931    -0.03100
C1152       C  0.57899132  0.18850894  0.33741412    -0.03100
C1153       C  0.60708399  0.21061045  0.33537570     0.06800
C1154       C  0.62654373  0.21098325  0.30176348    -0.03300
Br1155     Br  0.66777264  0.23710672  0.29845930    -0.01800
Br1156     Br  0.64059938  0.19895099  0.22276443    -0.01900
Br1157     Br  0.55537936  0.18268792  0.38477133    -0.01900
Br1158     Br  0.53270028  0.13715282  0.31033865    -0.01900
C1159       C  0.99648217  0.39152401  0.33006587    -0.03000
C1160       C  0.96393919  0.38013613  0.33914852     0.06700
C1161       C  0.95992184  0.34715169  0.35338057    -0.03100
C1162       C  0.48845446  0.32897836  0.36661595    -0.03100
C1163       C  0.52143373  0.34251037  0.36208555     0.06800
C1164       C  0.52499678  0.37190695  0.33928595    -0.03300
Br1165     Br  0.56818964  0.38620752  0.31900596    -0.01800
Br1166     Br  0.00169692  0.43448133  0.30528752    -0.01900
Br1167     Br  0.48108616  0.28699189  0.39273390    -0.01900
Br1168     Br  0.91541242  0.32724735  0.35749908    -0.01900
C1169       C  0.73896341  0.42651107  0.40138704    -0.03000
C1170       C  0.77177086  0.41212721  0.40400807     0.06700
C1171       C  0.77547250  0.38223845  0.42601784    -0.03100
C1172       C  0.74683873  0.36325683  0.43614759    -0.03100
C1173       C  0.71431371  0.37484237  0.42722378     0.06800
C1174       C  0.71039716  0.40819076  0.41404715    -0.03300
Br1175     Br  0.66610493  0.42880902  0.41206709    -0.01800
Br1176     Br  0.73207786  0.47064169  0.38006685    -0.01900
Br1177     Br  0.75161704  0.32136238  0.46321170    -0.01900
Br1178     Br  0.81900558  0.36654685  0.44425357    -0.01900
C1179       C  0.66588644  0.36674955  0.28297495    -0.03000
C1180       C  0.64441309  0.34155432  0.29717121     0.06700
C1181       C  0.62466046  0.32212254  0.27198840    -0.03100
C1182       C  0.62982354  0.32464642  0.23284277    -0.03100
C1183       C  0.65237566  0.34884116  0.21858992     0.06800
C1184       C  0.66897523  0.37109772  0.24367781    -0.03300
Br1185     Br  0.69606602  0.40751803  0.22415186    -0.01800
Br1186     Br  0.69310824  0.39346977  0.31685772    -0.01900
Br1187     Br  0.60894256  0.29239591  0.19961582    -0.01900
Br1188     Br  0.58977924  0.29264732  0.29108345    -0.01900
C1189       C  0.55004215  0.43795378  0.72772213    -0.03000
C1190       C  0.51653367  0.42894061  0.73717901     0.06700
C1191       C  0.50220985  0.44139004  0.77078406    -0.03100
C1192       C  0.52122492  0.46235848  0.79515687    -0.03100
C1193       C  0.55464931  0.47252020  0.78533167     0.06800
C1194       C  0.56885208  0.46003498  0.75124471    -0.03300
Br1195     Br  0.61255990  0.97584260  0.73404386    -0.01800
Br1196     Br  0.06922256  0.42197134  0.68076907    -0.01900
Br1197     Br  0.50083072  0.47597509  0.84242333    -0.01900
Br1198     Br  0.45576809  0.43014407  0.78278072    -0.01900
C1199       C  0.91859851  0.38056171  0.52053974    -0.03000
C1200       C  0.90137500  0.40186359  0.54594962     0.06700
C1201       C  0.88008762  0.42732433  0.53215026    -0.03100
C1202       C  0.87488648  0.43068907  0.49320875    -0.03100
C1203       C  0.89447022  0.41159156  0.46779033     0.06800
C1204       C  0.91619564  0.38632184  0.48147444    -0.03300
Br1205     Br  0.94555469  0.36228813  0.44766112    -0.01800
Br1206     Br  0.94685739  0.34456869  0.53933679    -0.01900
Br1207     Br  0.84082301  0.46155193  0.47484495    -0.01900
Br1208     Br  0.86298340  0.46137009  0.56542883    -0.01900
C1209       C  0.87637624  0.50121096  0.68453012    -0.03000
C1210       C  0.86546029  0.46971280  0.67241892     0.06700
C1211       C  0.83406976  0.46668146  0.65333399    -0.03100
C1212       C  0.81759746  0.99548213  0.63889937    -0.03100
C1213       C  0.83105151  0.02787300  0.64662561     0.06800
C1214       C  0.85894286  0.03022262  0.67289888    -0.03300
Br1215     Br  0.87614179  0.07209467  0.69356118    -0.01800
Br1216     Br  0.91565818  0.50366992  0.71751022    -0.01900
Br1217     Br  0.77920444  0.98898172  0.60544480    -0.01900
Br1218     Br  0.81455765  0.42288159  0.64429289    -0.01900
C1219       C  0.91588584  0.24646160  0.62039651    -0.03000
C1220       C  0.90160040  0.27870341  0.61519103     0.06700
C1221       C  0.87175650  0.28131209  0.59229989    -0.03100
C1222       C  0.85189101  0.25279897  0.58497657    -0.03100
C1223       C  0.86348030  0.22117357  0.59602955     0.06800
C1224       C  0.89721860  0.21768461  0.60950284    -0.03300
Br1225     Br  0.91769024  0.17387286  0.61510926    -0.01800
Br1226     Br  0.96049415  0.24086309  0.64234295    -0.01900
Br1227     Br  0.80873943  0.25662805  0.55920623    -0.01900
Br1228     Br  0.85773818  0.32288996  0.56867265    -0.01900
C1229       C  0.54793722  0.33183315  0.58373351    -0.03000
C1230       C  0.52979225  0.36260643  0.58447457     0.06700
C1231       C  0.53130071  0.38374474  0.55228663    -0.03100
C1232       C  0.54780140  0.37288447  0.51898427    -0.03100
C1233       C  0.56522974  0.34169017  0.51795189     0.06800
C1234       C  0.56551377  0.32155304  0.55090208    -0.03300
Br1235     Br  0.58975384  0.27934669  0.55183772    -0.01800
Br1236     Br  0.54997976  0.30351166  0.62814569    -0.01900
Br1237     Br  0.54237308  0.39959785  0.47356839    -0.01900
Br1238     Br  0.50945422  0.42725926  0.55182928    -0.01900
C1239       C  0.85869270  0.30403335  0.81218567    -0.03000
C1240       C  0.88383600  0.28999184  0.83601017     0.06700
C1241       C  0.91793928  0.30020262  0.83092330    -0.03100
C1242       C  0.92706005  0.32072436  0.79996849    -0.03100
C1243       C  0.90255220  0.33015437  0.77234813     0.06800
C1244       C  0.86777154  0.32416856  0.78086928    -0.03300
Br1245     Br  0.83156987  0.34469439  0.75189822    -0.01800
Br1246     Br  0.81109395  0.29717212  0.82324027    -0.01900
Br1247     Br  0.97333695  0.33722928  0.79807516    -0.01900
Br1248     Br  0.95324933  0.28524862  0.86496163    -0.01900
O1249       O  0.89528605  0.83430821  0.63511989    -0.82900
C1250       C  0.49452341  0.91164628  0.70906885     0.96400
O1251       O  0.49708558  0.88005747  0.70281208    -0.72100
O1252       O  0.94425068  0.84376133  0.72538560    -0.75600
Al1253     Al  0.96597944  0.84769474  0.67790789     1.49000
C1254       C  0.91317308  0.84342509  0.73394583     0.91700
O1255       O  0.88390971  0.91436017  0.68668848    -0.81900
O1256       O  0.94031258  0.90745484  0.59496227    -0.75400
Al1257     Al  0.89358293  0.87409394  0.66092807     1.90100
O1258       O  0.91711930  0.94563304  0.65255635    -0.74500
O1259       O  0.49965779  0.89961956  0.62708556    -0.74300
O1260       O  0.97355591  0.92951502  0.69091190    -0.80000
O1261       O  0.49044809  0.84628069  0.63196352    -0.78200
O1262       O  0.93834934  0.87965925  0.66137236    -1.14300
O1263       O  0.94069721  0.81002901  0.65610194    -0.73500
C1264       C  0.91399002  0.80922119  0.63603651     0.97200
C1265       C  0.89028971  0.94200923  0.67156869     0.93600
Al1266     Al  0.95607767  0.91752115  0.64329240     1.55600
O1267       O  0.89159857  0.85239933  0.70955286    -0.78200
C1268       C  0.50587146  0.87000116  0.61635959     0.97700
C1269       C  0.91010068  0.90090927  0.58609348     0.92600
O1270       O  0.88792799  0.89393113  0.61094710    -0.83500
O1271       O  0.57660700  0.84858227  0.38605610    -0.82900
C1272       C  0.65170931  0.74768937  0.46049427     0.96400
O1273       O  0.61972183  0.74654110  0.45379288    -0.72100
O1274       O  0.58031761  0.79911932  0.47297189    -0.75600
Al1275     Al  0.58821257  0.77674441  0.42615570     1.49000
C1276       C  0.58139594  0.82980160  0.48191825     0.91700
O1277       O  0.65763756  0.85699388  0.43901472    -0.81900
O1278       O  0.65156434  0.80270626  0.34612359    -0.75400
Al1279     Al  0.61708206  0.84858384  0.41215606     1.90100
O1280       O  0.68938962  0.82398272  0.40548553    -0.74500
O1281       O  0.64300511  0.74319822  0.37685053    -0.74300
O1282       O  0.67084234  0.76759568  0.44248121    -0.80000
O1283       O  0.58887290  0.75088840  0.38095853    -0.78200
O1284       O  0.62164967  0.80391529  0.41165060    -1.14300
O1285       O  0.55210419  0.80166669  0.40085448    -0.73500
C1286       C  0.55156777  0.82959612  0.38370160     0.97200
C1287       C  0.68588981  0.85039654  0.42487662     0.93600
Al1288     Al  0.66035305  0.78604878  0.39463847     1.55600
O1289       O  0.59488871  0.85073313  0.45989752    -0.78200
C1290       C  0.61341223  0.73579210  0.36622716     0.97700
C1291       C  0.64466710  0.83267279  0.33750702     0.92600
O1292       O  0.63767991  0.85441091  0.36270313    -0.83500
O1293       O  0.59056781  0.66362470  0.13809281    -0.82900
C1294       C  0.98622804  0.58829575  0.20762621     0.96400
O1295       O  0.98605061  0.62030094  0.20326845    -0.72100
O1296       O  0.54074414  0.65699974  0.22743671    -0.75600
Al1297     Al  0.51841803  0.65224500  0.17910850     1.49000
C1298       C  0.57220687  0.65698631  0.23490417     0.91700
O1299       O  0.59812215  0.58268893  0.18943419    -0.81900
O1300       O  0.54412471  0.59226803  0.09597969    -0.75400
Al1301     Al  0.59054968  0.62344743  0.16353271     1.90100
O1302       O  0.56463975  0.55302865  0.15362487    -0.74500
O1303       O  0.98423146  0.60081448  0.12704348    -0.74300
O1304       O  0.00855132  0.57079125  0.19114227    -0.80000
O1305       O  0.99344355  0.65403111  0.13290582    -0.78200
O1306       O  0.54550524  0.61957096  0.16284738    -1.14300
O1307       O  0.54486991  0.68884921  0.15696547    -0.73500
C1308       C  0.57220097  0.68907874  0.13805517     0.97200
C1309       C  0.59082147  0.55527368  0.17401279     0.93600
Al1310     Al  0.52709482  0.58237388  0.14386694     1.55600
O1311       O  0.59296849  0.64503366  0.21141959    -0.78200
C1312       C  0.97747949  0.63044555  0.11725184     0.97700
C1313       C  0.57477140  0.59809001  0.08820574     0.92600
O1314       O  0.59660660  0.60352010  0.11395841    -0.83500
O1315       O  0.91831498  0.65488493  0.90845038    -0.82900
C1316       C  0.83308966  0.75799781  0.95802218     0.96400
O1317       O  0.86247250  0.74692470  0.96679482    -0.72100
O1318       O  0.90860811  0.69650191  0.97257576    -0.75600
Al1319     Al  0.89495356  0.72596757  0.93187664     1.49000
C1320       C  0.89680349  0.66965462  0.98653126     0.91700
O1321       O  0.82463349  0.64120642  0.91824442    -0.81900
O1322       O  0.82549719  0.68432986  0.85032089    -0.75400
Al1323     Al  0.87046585  0.65394528  0.91470489     1.90100
O1324       O  0.79655395  0.68815235  0.92023768    -0.74500
O1325       O  0.85124567  0.74305200  0.85732398    -0.74300
O1326       O  0.82027546  0.75016430  0.92653435    -0.80000
O1327       O  0.88942461  0.76216593  0.89607902    -0.78200
O1328       O  0.86374834  0.69839232  0.91288166    -1.14300
O1329       O  0.92935735  0.70769631  0.89743412    -0.73500
C1330       C  0.93640178  0.67674809  0.89268856     0.97200
C1331       C  0.79686997  0.65647668  0.91938183     0.93600
Al1332     Al  0.82679267  0.71507854  0.89087404     1.55600
O1333       O  0.87442570  0.65308231  0.96873315    -0.78200
C1334       C  0.87430361  0.76386218  0.86471578     0.97700
C1335       C  0.84643183  0.66262143  0.83971151     0.92600
O1336       O  0.86776112  0.65036971  0.86210116    -0.83500
O1337       O  0.65952842  0.59144934  0.88086036    -0.82900
C1338       C  0.57397126  0.99649571  0.81025761     0.96400
O1339       O  0.60567083  0.99272772  0.81636279    -0.72100
O1340       O  0.63884962  0.54439658  0.78660001    -0.75600
Al1341     Al  0.64023671  0.52444736  0.83522023     1.49000
C1342       C  0.64589881  0.57473971  0.77995016     0.91700
O1343       O  0.57955267  0.60992058  0.82960563    -0.81900
O1344       O  0.58405003  0.55439714  0.92136328    -0.75400
Al1345     Al  0.61945562  0.59716868  0.85468373     1.90100
O1346       O  0.54611515  0.57811607  0.86329766    -0.74500
O1347       O  0.59033512  0.99492585  0.89090422    -0.74300
O1348       O  0.55818043  0.02010360  0.82648887    -0.80000
O1349       O  0.64473866  0.00191666  0.88270723    -0.78200
O1350       O  0.61060430  0.55350036  0.85403446    -1.14300
O1351       O  0.68148257  0.55021046  0.84847935    -0.73500
C1352       C  0.68493256  0.57606569  0.86920455     0.97200
C1353       C  0.55130871  0.60471694  0.84455645     0.93600
Al1354     Al  0.57246167  0.53824491  0.87360508     1.55600
O1355       O  0.64111305  0.59692940  0.80525765    -0.78200
C1356       C  0.62063791  0.98774037  0.89998896     0.97700
C1357       C  0.59239318  0.58395333  0.92974027     0.92600
O1358       O  0.60035908  0.60509029  0.90449192    -0.83500
O1359       O  0.83621807  0.58478614  0.63093542    -0.82900
C1360       C  0.73432604  0.66379961  0.56115856     0.96400
O1361       O  0.73510245  0.63164527  0.56169701    -0.72100
O1362       O  0.79087089  0.59796504  0.53681128    -0.75600
Al1363     Al  0.76696510  0.59829969  0.58395113     1.49000
C1364       C  0.82253218  0.59586513  0.53191221     0.91700
O1365       O  0.84630581  0.66578995  0.58177509    -0.81900
O1366       O  0.79207766  0.65337981  0.67487987    -0.75400
Al1367     Al  0.83817935  0.62503018  0.60641568     1.90100
O1368       O  0.81277062  0.69540743  0.61789355    -0.74500
O1369       O  0.73279012  0.64438713  0.64401927    -0.74300
O1370       O  0.75506730  0.68002978  0.58146215    -0.80000
O1371       O  0.73992866  0.59256259  0.62719743    -0.78200
O1372       O  0.79319938  0.62950351  0.60539282    -1.14300
O1373       O  0.79340572  0.55997950  0.60401882    -0.73500
C1374       C  0.81891999  0.55897450  0.62626150     0.97200
C1375       C  0.83925020  0.69298300  0.59772799     0.93600
Al1376     Al  0.77470969  0.66536229  0.62732445     1.55600
O1377       O  0.84224232  0.60416221  0.55832451    -0.78200
C1378       C  0.72533133  0.61370492  0.64775853     0.97700
C1379       C  0.82288310  0.64855973  0.68244183     0.92600
O1380       O  0.84435341  0.64415685  0.65635057    -0.83500
O1381       O  0.82644231  0.90618434  0.37868265    -0.82900
C1382       C  0.90180173  0.50734695  0.30688506     0.96400
O1383       O  0.86983054  0.50880865  0.31336787    -0.72100
O1384       O  0.83002087  0.95692456  0.29260724    -0.75600
Al1385     Al  0.83812023  0.97846380  0.34006587     1.49000
C1386       C  0.83116498  0.92634948  0.28329536     0.91700
O1387       O  0.90758003  0.89844284  0.32611565    -0.81900
O1388       O  0.90124117  0.95146570  0.41994505    -0.75400
Al1389     Al  0.86691893  0.90647699  0.35278294     1.90100
O1390       O  0.93910731  0.93062501  0.36113124    -0.74500
O1391       O  0.89322082  0.51132512  0.38968663    -0.74300
O1392       O  0.92082226  0.48712629  0.32465063    -0.80000
O1393       O  0.83908438  0.50360004  0.38584985    -0.78200
O1394       O  0.87150809  0.95102045  0.35422969    -1.14300
O1395       O  0.80187002  0.95332136  0.36488016    -0.73500
C1396       C  0.80148815  0.92521774  0.38167748     0.97200
C1397       C  0.93568302  0.90460411  0.34109473     0.93600
Al1398     Al  0.91024264  0.96850435  0.37187241     1.55600
O1399       O  0.84480175  0.90517743  0.30499989    -0.78200
C1400       C  0.86374744  0.51877698  0.40035506     0.97700
C1401       C  0.89453870  0.92127701  0.42775380     0.92600
O1402       O  0.88752466  0.89992797  0.40212260    -0.83500
O1403       O  0.64459380  0.91363243  0.12860248    -0.82900
C1404       C  0.74782551  0.84129402  0.05599033     0.96400
O1405       O  0.74817196  0.87319728  0.06102910    -0.72100
O1406       O  0.69374757  0.90926589  0.03920248    -0.75600
Al1407     Al  0.71627023  0.90425117  0.08675552     1.49000
C1408       C  0.66246556  0.90874470  0.03150435     0.91700
O1409       O  0.63798533  0.83271170  0.07678855    -0.81900
O1410       O  0.69250249  0.84396533  0.17015563    -0.75400
Al1411     Al  0.64502790  0.87379125  0.10270552     1.90100
O1412       O  0.67211250  0.80379197  0.11251645    -0.74500
O1413       O  0.75199632  0.85334842  0.13857582    -0.74300
O1414       O  0.72830358  0.82257870  0.07504827    -0.80000
O1415       O  0.74155369  0.90626559  0.13236962    -0.78200
O1416       O  0.69011929  0.87079467  0.10295282    -1.14300
O1417       O  0.68963143  0.94000970  0.11008844    -0.73500
C1418       C  0.66262365  0.93924385  0.12947780     0.97200
C1419       C  0.64545667  0.80558002  0.09273020     0.93600
Al1420     Al  0.70947508  0.83399266  0.12200601     1.55600
O1421       O  0.64175142  0.89585198  0.05454571    -0.78200
C1422       C  0.75745498  0.88318438  0.14862415     0.97700
C1423       C  0.66180153  0.84887049  0.17828623     0.92600
O1424       O  0.63969643  0.85370780  0.15261096    -0.83500
C1425       C  0.79640740  0.88379174  0.24745912    -0.03000
C1426       C  0.81472913  0.91441084  0.24750742     0.06700
C1427       C  0.81624373  0.93332889  0.21370631    -0.03100
C1428       C  0.79949405  0.92193463  0.18065033    -0.03100
C1429       C  0.78084409  0.89149996  0.18078667     0.06800
C1430       C  0.78103568  0.87168076  0.21404352    -0.03300
Br1431     Br  0.75945878  0.82809984  0.21564948    -0.01800
Br1432     Br  0.78786659  0.86006698  0.29433128    -0.01900
Br1433     Br  0.80381609  0.94758641  0.13449064    -0.01900
Br1434     Br  0.84074186  0.97530208  0.21209917    -0.01900
C1435       C  0.81901972  0.58443720  0.46128360    -0.03000
C1436       C  0.83688060  0.58156208  0.49590987     0.06700
C1437       C  0.86783216  0.56309194  0.49617345    -0.03100
C1438       C  0.87833238  0.54507137  0.46374582    -0.03100
C1439       C  0.85765143  0.54416659  0.43095717     0.06800
C1440       C  0.82896628  0.56548379  0.42931759    -0.03300
Br1441     Br  0.80385343  0.57009221  0.38256088    -0.01800
Br1442     Br  0.78213556  0.61603187  0.45637425    -0.01900
Br1443     Br  0.92051411  0.02022054  0.46584909    -0.01900
Br1444     Br  0.89607371  0.56012116  0.54106312    -0.01900
C1445       C  0.60905624  0.96404826  0.96557285    -0.03000
C1446       C  0.62818757  0.96353666  0.93161998     0.06700
C1447       C  0.65662913  0.94182734  0.92957378    -0.03100
C1448       C  0.66719919  0.92305116  0.96152475    -0.03100
C1449       C  0.64957832  0.92560183  0.99625772     0.06800
C1450       C  0.62039539  0.94636556  0.99788891    -0.03300
Br1451     Br  0.59771513  0.95439405  0.04561756    -0.01800
Br1452     Br  0.56753641  0.98964063  0.96952981    -0.01900
Br1453     Br  0.70591696  0.89359704  0.95715496    -0.01900
Br1454     Br  0.68019588  0.93591647  0.88213313    -0.01900
C1455       C  0.70596484  0.57034768  0.69564949    -0.03000
C1456       C  0.70108067  0.60200299  0.67792395     0.06700
C1457       C  0.67447880  0.62281518  0.69139326    -0.03100
C1458       C  0.65522626  0.61333401  0.72354277    -0.03100
C1459       C  0.66304962  0.58357558  0.74354214     0.06800
C1460       C  0.68890451  0.56240357  0.72938103    -0.03300
Br1461     Br  0.70484097  0.52404679  0.75808914    -0.01800
Br1462     Br  0.73603078  0.53649716  0.67523383    -0.01900
Br1463     Br  0.61742895  0.64072692  0.73942923    -0.01900
Br1464     Br  0.66219812  0.66304377  0.66418483    -0.01900
C1465       C  0.82686685  0.80470203  0.00796726    -0.03000
C1466       C  0.81204563  0.78036041  0.98357853     0.06700
C1467       C  0.77584942  0.77914100  0.98145452    -0.03100
C1468       C  0.75563143  0.80191047  0.00200538    -0.03100
C1469       C  0.77037873  0.82436567  0.02793834     0.06800
C1470       C  0.80612158  0.82582658  0.03075452    -0.03300
Br1471     Br  0.82660557  0.85577327  0.06715938    -0.01800
Br1472     Br  0.87540986  0.81046456  0.00956906    -0.01900
Br1473     Br  0.70694579  0.80304544  0.99405773    -0.01900
Br1474     Br  0.75191379  0.74486139  0.95335265    -0.01900
C1475       C  0.82364737  0.62892102  0.78671684    -0.03000
C1476       C  0.84649131  0.65321641  0.79993577     0.06700
C1477       C  0.86520386  0.67287174  0.77449060    -0.03100
C1478       C  0.85820938  0.67090659  0.73566322    -0.03100
C1479       C  0.83350595  0.64819117  0.72230543     0.06800
C1480       C  0.81721468  0.62628603  0.74782335    -0.03300
Br1481     Br  0.78577269  0.59293305  0.72987748    -0.01800
Br1482     Br  0.80089542  0.59992563  0.82214155    -0.01900
Br1483     Br  0.87938813  0.70239621  0.70210459    -0.01900
Br1484     Br  0.89943651  0.70345464  0.79320576    -0.01900
C1485       C  0.76317951  0.60258316  0.92333808    -0.03000
C1486       C  0.76567528  0.63661401  0.91139613     0.06700
C1487       C  0.74344337  0.64807487  0.88270814    -0.03100
C1488       C  0.72183989  0.62544767  0.86428629    -0.03100
C1489       C  0.71767567  0.59240128  0.87771724     0.06800
C1490       C  0.73847574  0.58095374  0.90731098    -0.03300
Br1491     Br  0.73318704  0.53554994  0.92511200    -0.01800
Br1492     Br  0.79274342  0.58555247  0.96246015    -0.01900
Br1493     Br  0.69962318  0.63987381  0.81847408    -0.01900
Br1494     Br  0.74163797  0.69443150  0.86643181    -0.01900
C1495       C  0.52799969  0.66160979  0.86161839    -0.03000
C1496       C  0.52433801  0.63031807  0.84299952     0.06700
C1497       C  0.99226611  0.61946239  0.83203379    -0.03100
C1498       C  0.96338529  0.63594215  0.84567761    -0.03100
C1499       C  0.96626326  0.66465150  0.87000747     0.06800
C1500       C  0.99894889  0.67848136  0.87575080    -0.03300
Br1501     Br  0.50510259  0.71760144  0.90747267    -0.01800
Br1502     Br  0.57260134  0.67983813  0.87101799    -0.01900
Br1503     Br  0.92150968  0.61576056  0.83072946    -0.01900
Br1504     Br  0.98904479  0.58058009  0.79890634    -0.01900
C1505       C  0.92284054  0.56432505  0.28629835    -0.03000
C1506       C  0.91818934  0.52978574  0.27874524     0.06700
C1507       C  0.93294047  0.51572447  0.24625444    -0.03100
C1508       C  0.95178819  0.53588071  0.22124216    -0.03100
C1509       C  0.95980509  0.56985451  0.23055468     0.06800
C1510       C  0.94333504  0.58439044  0.26230108    -0.03300
Br1511     Br  0.94793420  0.63158587  0.27348705    -0.01800
Br1512     Br  0.90364816  0.58333524  0.33171522    -0.01900
Br1513     Br  0.96282999  0.51677715  0.17241291    -0.01900
Br1514     Br  0.92889290  0.96787478  0.23694188    -0.01900
C1515       C  0.92689851  0.62478944  0.02415395    -0.03000
C1516       C  0.91161657  0.65686184  0.02272897     0.06700
C1517       C  0.91424031  0.67812395  0.05457959    -0.03100
C1518       C  0.93357706  0.66843071  0.08651009    -0.03100
C1519       C  0.95182991  0.63769006  0.08658903     0.06800
C1520       C  0.94708526  0.61530596  0.05555980    -0.03300
Br1521     Br  0.96965454  0.57219920  0.05354620    -0.01800
Br1522     Br  0.92242205  0.59435949  0.98171347    -0.01900
Br1523     Br  0.93335835  0.69713710  0.13069536    -0.01900
Br1524     Br  0.89059485  0.72059095  0.05472798    -0.01900
C1525       C  0.63440934  0.74444097  0.08497414    -0.03000
C1526       C  0.62173247  0.77662305  0.09244648     0.06700
C1527       C  0.58826760  0.77996792  0.10655103    -0.03100
C1528       C  0.57073336  0.75152460  0.12044545    -0.03100
C1529       C  0.58525502  0.71912319  0.11674992     0.06800
C1530       C  0.61522255  0.71593456  0.09430259    -0.03300
Br1531     Br  0.63063555  0.67341447  0.07383303    -0.01800
Br1532     Br  0.67885975  0.73939174  0.06265340    -0.01900
Br1533     Br  0.52784266  0.75824823  0.14578558    -0.01900
Br1534     Br  0.56690513  0.82351043  0.10980405    -0.01900
C1535       C  0.66594165  0.49998863  0.15221596    -0.03000
C1536       C  0.64956609  0.96840954  0.15215774     0.06700
C1537       C  0.61826391  0.96544440  0.17230896    -0.03100
C1538       C  0.60021235  0.99434911  0.18278577    -0.03100
C1539       C  0.61397194  0.52617846  0.17603695     0.06800
C1540       C  0.64814658  0.52888683  0.16423214    -0.03300
Br1541     Br  0.67019045  0.57211878  0.16142575    -0.01800
Br1542     Br  0.71284382  0.50435997  0.13718773    -0.01900
Br1543     Br  0.55572141  0.99073024  0.20553257    -0.01900
Br1544     Br  0.59909977  0.92273863  0.18774494    -0.01900
C1545       C  0.56512360  0.61929974  0.02352478    -0.03000
C1546       C  0.58434834  0.59907972  0.04823420     0.06700
C1547       C  0.60964922  0.57769296  0.03382003    -0.03100
C1548       C  0.61438505  0.57537122  0.99456626    -0.03100
C1549       C  0.59269047  0.59300768  0.96985123     0.06800
C1550       C  0.56809192  0.61497803  0.98439631    -0.03300
Br1551     Br  0.53508640  0.63526567  0.95164255    -0.01800
Br1552     Br  0.53468923  0.65310232  0.04322379    -0.01900
Br1553     Br  0.64944146  0.54665787  0.97443286    -0.01900
Br1554     Br  0.63557506  0.54922703  0.06704146    -0.01900
C1555       C  0.67171187  0.69027635  0.48154069    -0.03000
C1556       C  0.66796323  0.72493869  0.48888893     0.06700
C1557       C  0.68320325  0.73856665  0.52147587    -0.03100
C1558       C  0.70193809  0.71799078  0.54652309    -0.03100
C1559       C  0.70901634  0.68365918  0.53742934     0.06800
C1560       C  0.69208662  0.66972896  0.50537779    -0.03300
Br1561     Br  0.69589162  0.62263717  0.49311691    -0.01800
Br1562     Br  0.65065623  0.67148231  0.43689772    -0.01900
Br1563     Br  0.71438216  0.73750220  0.59486535    -0.01900
Br1564     Br  0.67889666  0.78617944  0.53139966    -0.01900
C1565       C  0.61543670  0.69309602  0.26931637    -0.03000
C1566       C  0.58560482  0.67307853  0.27043174     0.06700
C1567       C  0.56853667  0.66967494  0.30530849    -0.03100
C1568       C  0.57880641  0.68861880  0.33730320    -0.03100
C1569       C  0.60697361  0.71063265  0.33530578     0.06800
C1570       C  0.62647429  0.71093927  0.30172085    -0.03300
Br1571     Br  0.66776279  0.73697645  0.29845454    -0.01800
Br1572     Br  0.64061414  0.69881228  0.22275812    -0.01900
Br1573     Br  0.55510877  0.68288041  0.38462126    -0.01900
Br1574     Br  0.53233028  0.63745829  0.31016175    -0.01900
C1575       C  0.99646612  0.89144284  0.33004615    -0.03000
C1576       C  0.96392527  0.88008605  0.33918234     0.06700
C1577       C  0.95990044  0.84712298  0.35347616    -0.03100
C1578       C  0.48846112  0.82900159  0.36647822    -0.03100
C1579       C  0.52143548  0.84256019  0.36199980     0.06800
C1580       C  0.52499694  0.87198149  0.33923617    -0.03300
Br1581     Br  0.56819490  0.88633660  0.31901014    -0.01800
Br1582     Br  0.00168868  0.93436286  0.30519317    -0.01900
Br1583     Br  0.48110110  0.78696579  0.39249807    -0.01900
Br1584     Br  0.91538256  0.82725311  0.35768861    -0.01900
C1585       C  0.73891620  0.92645974  0.40118861    -0.03000
C1586       C  0.77172994  0.91209209  0.40383712     0.06700
C1587       C  0.77544318  0.88222087  0.42587882    -0.03100
C1588       C  0.74681482  0.86325539  0.43606136    -0.03100
C1589       C  0.71428669  0.87482879  0.42714121     0.06800
C1590       C  0.71036064  0.90815854  0.41391015    -0.03300
Br1591     Br  0.66606798  0.92877773  0.41194047    -0.01800
Br1592     Br  0.73199184  0.97051505  0.37968329    -0.01900
Br1593     Br  0.75160298  0.82139876  0.46319626    -0.01900
Br1594     Br  0.81898721  0.86650287  0.44405589    -0.01900
C1595       C  0.66589991  0.86673908  0.28291478    -0.03000
C1596       C  0.64442348  0.84154545  0.29711119     0.06700
C1597       C  0.62467275  0.82211249  0.27192782    -0.03100
C1598       C  0.62983788  0.82463443  0.23278370    -0.03100
C1599       C  0.65238201  0.84883571  0.21853352     0.06800
C1600       C  0.66898721  0.87108903  0.24361877    -0.03300
Br1601     Br  0.69609059  0.90750123  0.22409012    -0.01800
Br1602     Br  0.69313147  0.89345327  0.31678959    -0.01900
Br1603     Br  0.60897872  0.79237009  0.19955242    -0.01900
Br1604     Br  0.58979014  0.79263941  0.29101844    -0.01900
C1605       C  0.55002427  0.93813542  0.72755728    -0.03000
C1606       C  0.51657363  0.92898153  0.73710512     0.06700
C1607       C  0.50230274  0.94130037  0.77079933    -0.03100
C1608       C  0.52134936  0.96219547  0.79521898    -0.03100
C1609       C  0.55470589  0.97249627  0.78530820     0.06800
C1610       C  0.56883511  0.96019529  0.75110378    -0.03300
Br1611     Br  0.61269256  0.47545398  0.73428191    -0.01800
Br1612     Br  0.06926266  0.92172161  0.68095711    -0.01900
Br1613     Br  0.50112245  0.97549216  0.84268689    -0.01900
Br1614     Br  0.45586921  0.93005026  0.78282079    -0.01900
C1615       C  0.91859752  0.88072407  0.52049964    -0.03000
C1616       C  0.90133800  0.90201691  0.54588717     0.06700
C1617       C  0.87996992  0.92740266  0.53206307    -0.03100
C1618       C  0.87475390  0.93071432  0.49311532    -0.03100
C1619       C  0.89438364  0.91163775  0.46772048     0.06800
C1620       C  0.91618290  0.88644649  0.48143227    -0.03300
Br1621     Br  0.94564000  0.86249611  0.44765352    -0.01800
Br1622     Br  0.94688763  0.84476776  0.53932213    -0.01900
Br1623     Br  0.84062784  0.96148805  0.47470283    -0.01900
Br1624     Br  0.86273673  0.96140513  0.56531521    -0.01900
C1625       C  0.87624285  0.00119820  0.68461670    -0.03000
C1626       C  0.86537623  0.96968994  0.67247722     0.06700
C1627       C  0.83398834  0.96662164  0.65338860    -0.03100
C1628       C  0.81770551  0.49556012  0.63884572    -0.03100
C1629       C  0.83120845  0.52794301  0.64653297     0.06800
C1630       C  0.85916134  0.53026566  0.67274056    -0.03300
Br1631     Br  0.87662777  0.57212842  0.69317105    -0.01800
Br1632     Br  0.91558880  0.00373163  0.71749311    -0.01900
Br1633     Br  0.77927500  0.48908581  0.60543728    -0.01900
Br1634     Br  0.81451341  0.92280848  0.64433613    -0.01900
C1635       C  0.91585411  0.74657897  0.62034573    -0.03000
C1636       C  0.90158207  0.77880907  0.61503670     0.06700
C1637       C  0.87174250  0.78138457  0.59213221    -0.03100
C1638       C  0.85187837  0.75285945  0.58486933    -0.03100
C1639       C  0.86344753  0.72125853  0.59603799     0.06800
C1640       C  0.89716421  0.71778477  0.60958388    -0.03300
Br1641     Br  0.91756410  0.67397772  0.61553662    -0.01800
Br1642     Br  0.96049199  0.74102614  0.64223830    -0.01900
Br1643     Br  0.80873832  0.75664256  0.55906604    -0.01900
Br1644     Br  0.85770559  0.82293307  0.56844299    -0.01900
C1645       C  0.54796272  0.83182572  0.58367737    -0.03000
C1646       C  0.52979272  0.86258420  0.58443530     0.06700
C1647       C  0.53128551  0.88373793  0.55225697    -0.03100
C1648       C  0.54778638  0.87290005  0.51894458    -0.03100
C1649       C  0.56523657  0.84171890  0.51789698     0.06800
C1650       C  0.56555962  0.82158185  0.55084564    -0.03300
Br1651     Br  0.58991546  0.77944041  0.55178537    -0.01800
Br1652     Br  0.55001096  0.80347295  0.62806244    -0.01900
Br1653     Br  0.54235063  0.89963321  0.47354467    -0.01900
Br1654     Br  0.50942961  0.92724854  0.55182873    -0.01900
C1655       C  0.85854157  0.80378641  0.81188259    -0.03000
C1656       C  0.88367562  0.78978757  0.83575694     0.06700
C1657       C  0.91778644  0.79996747  0.83065008    -0.03100
C1658       C  0.92690919  0.82053637  0.79973912    -0.03100
C1659       C  0.90241198  0.83000443  0.77212497     0.06800
C1660       C  0.86762829  0.82394765  0.78058538    -0.03300
Br1661     Br  0.83142856  0.84441399  0.75155419    -0.01800
Br1662     Br  0.81093310  0.79679137  0.82278952    -0.01900
Br1663     Br  0.97319615  0.83703090  0.79790880    -0.01900
Br1664     Br  0.95312858  0.78483088  0.86454407    -0.01900
loop_ 
_geom_bond_atom_site_label_1 
_geom_bond_atom_site_label_2 
_geom_bond_distance 
_geom_bond_site_symmetry_2 
_ccdc_geom_bond_type 
O1           C16   1.242       .  A
O1           Al9   1.827       .  S
C2            O3   1.280       .  A
C2          O844   1.264       .  A
C2          C358   1.485   1_655  S
O3         Al837   1.980       .  S
O4            C6   1.263       .  A
O4           Al5   1.893       .  S
Al5          O15   1.956       .  S
Al5         O835   1.980       .  S
Al5         O845   1.892       .  S
Al5          O14   1.774       .  S
C6           O19   1.262       .  A
C6          C411   1.514       .  S
O7           C17   1.251       .  A
O7           Al9   1.881       .  S
O8           C21   1.258       .  A
O8          Al18   1.859       .  S
Al9          O22   1.949       .  S
Al9          O19   1.927       .  S
Al9          O14   1.778       .  S
O10          C17   1.263       .  A
O10         Al18   1.929       .  S
O11          C20   1.262   1_655  A
O11        Al850   1.945       .  S
O12         C834   1.264       .  A
O12         Al18   1.878       .  S
O13          C20   1.253   1_655  A
O13        Al837   1.892       .  S
O14         Al18   1.782       .  S
O15          C16   1.268       .  A
C16         C388   1.500       .  S
C17         C378   1.477       .  S
Al18        O843   1.945       .  S
C20         C398   1.501       .  S
C21          O22   1.272       .  A
C21         C368   1.462       .  S
O23          C38   1.246       .  A
O23         Al31   1.841       .  S
C24          O34   1.268       .  A
C24          O25   1.283       .  A
C24         C308   1.496       .  S
O25         Al27   1.985       .  S
O26          C28   1.262       .  A
O26         Al27   1.904       .  S
Al27         O35   1.899       .  S
Al27         O37   1.951       .  S
Al27         O36   1.782       .  S
C28          O41   1.260       .  A
C28         C401   1.500       .  S
O29          C39   1.250       .  A
O29         Al31   1.886       .  S
O30          C43   1.261       .  A
O30         Al40   1.872       .  S
Al31         O44   1.944       .  S
Al31         O41   1.905       .  S
Al31         O36   1.787       .  S
O32          C39   1.262       .  A
O32         Al40   1.932       .  S
O33          C42   1.259       .  A
O33         Al40   1.940       .  S
O34         Al40   1.890       .  S
O35          C42   1.253       .  A
O36         Al40   1.788       .  S
O37          C38   1.268       .  A
C38         C331   1.504       .  S
C39         C341   1.485       .  S
C42         C321   1.502       .  S
C43          O44   1.271       .  A
C43         C348   1.472       .  S
O45          C60   1.245       .  A
O45         Al53   1.837       .  S
C46          O56   1.265       .  A
C46          O47   1.284       .  A
C46         C261   1.513       .  S
O47        Al881   1.997       .  S
O48          C50   1.267       .  A
O48         Al49   1.928       .  S
Al49         O59   1.958       .  S
Al49        O879   1.997   1_455  S
Al49        O889   1.912   1_455  S
Al49         O58   1.778       .  S
C50          O63   1.260       .  A
C50         C318   1.503       .  S
O51          C61   1.252       .  A
O51         Al53   1.888       .  S
O52          C65   1.261       .  A
O52         Al62   1.866       .  S
Al53         O66   1.937       .  S
Al53         O63   1.899       .  S
Al53         O58   1.782       .  S
O54          C61   1.260       .  A
O54         Al62   1.917       .  S
O55          C64   1.258       .  A
O55        Al894   1.939       .  S
O56        Al894   1.881       .  S
O57          C64   1.257       .  A
O57        Al881   1.912       .  S
O58         Al62   1.778       .  S
O59          C60   1.269       .  A
C60         C281   1.506       .  S
C61         C291   1.476       .  S
Al62        O887   1.938   1_455  S
Al62        O888   1.881       .  S
C64         C271   1.509       .  S
C65          O66   1.269       .  A
C65         C298   1.464       .  S
O67          C82   1.257       .  A
O67         Al75   1.900       .  S
C68          O78   1.259       .  A
C68          O69   1.277       .  A
C68         C218   1.516       .  S
O69         Al71   1.965       .  S
O70          C72   1.267       .  A
O70         Al71   1.934       .  S
Al71         O79   1.932       .  S
Al71         O81   1.964       .  S
Al71         O80   1.778       .  S
C72          O85   1.266       .  A
C72         C268   1.496   1_556  S
O73          C83   1.253       .  A
O73         Al75   1.881       .  S
O74          C87   1.252       .  A
O74         Al84   1.883       .  S
Al75         O88   1.867       .  S
Al75         O85   1.916       .  S
Al75         O80   1.790       .  S
O76          C83   1.261       .  A
O76         Al84   1.913       .  S
O77          C86   1.256       .  A
O77         Al84   1.894       .  S
O78         Al84   1.897       .  S
O79          C86   1.259       .  A
O80         Al84   1.779       .  S
O81          C82   1.274       .  A
C82         C251   1.505       .  S
C83         C238   1.488       .  S
C86         C408   1.502       .  S
C87          O88   1.253       .  A
C87         C228   1.454       .  S
O89         C104   1.245       .  A
O89         Al97   1.843       .  S
C90         O100   1.265       .  A
C90          O91   1.276       .  A
C90         C361   1.503       .  S
O91        Al509   1.973       .  S
O92          C94   1.262       .  A
O92         Al93   1.896       .  S
Al93        O103   1.977       .  S
Al93        O507   1.972   1_545  S
Al93        O517   1.913       .  S
Al93        O102   1.773       .  S
C94         O107   1.270       .  A
C94         C211   1.498       .  S
O95         C105   1.251       .  A
O95         Al97   1.874       .  S
O96         C109   1.256       .  A
O96        Al106   1.861       .  S
Al97        O110   1.942       .  S
Al97        O107   1.947       .  S
Al97        O102   1.773       .  S
O98         C105   1.267       .  A
O98        Al106   1.932       .  S
O99         C108   1.269       .  A
O99        Al522   1.956       .  S
O100       Al522   1.898       .  S
O101        C108   1.265       .  A
O101       Al509   1.913       .  S
O102       Al106   1.765       .  S
O103        C104   1.269       .  A
C104        C241   1.475       .  S
C105        C248   1.474       .  S
Al106       O515   1.957   1_545  S
Al106       O516   1.898       .  S
C108        C198   1.507       .  S
C109        O110   1.268       .  A
C109        C301   1.462       .  S
O111        C126   1.244       .  A
O111       Al119   1.825       .  S
C112        O122   1.263       .  A
C112        O113   1.281       .  A
C112        C311   1.524       .  S
O113       Al115   1.989       .  S
O114        C116   1.263       .  A
O114       Al115   1.917       .  S
Al115       O123   1.880       .  S
Al115       O125   1.979       .  S
Al115       O124   1.783       .  S
C116        O129   1.256       .  A
C116        C188   1.505       .  S
O117        C127   1.251       .  A
O117       Al119   1.872       .  S
O118        C131   1.257       .  A
O118       Al128   1.876       .  S
Al119       O132   1.935       .  S
Al119       O129   1.898       .  S
Al119       O124   1.782       .  S
O120        C127   1.269       .  A
O120       Al128   1.948       .  S
O121        C130   1.264       .  A
O121       Al128   1.945       .  S
O122       Al128   1.888       .  S
O123        C130   1.252       .  A
O124       Al128   1.780       .  S
O125        C126   1.275       .  A
C126        C381   1.509       .  S
C127        C391   1.477       .  S
C130        C208   1.509       .  S
C131        O132   1.265       .  A
C131        C231   1.469       .  S
O133        C148   1.246       .  A
O133       Al141   1.842       .  S
C134        O144   1.267   1_545  A
C134        O135   1.283       .  A
C134        C258   1.487       .  S
O135       Al553   1.982   1_545  S
O136        C138   1.261       .  A
O136       Al137   1.908       .  S
Al137       O147   1.956       .  S
Al137       O551   1.982       .  S
Al137       O561   1.897       .  S
Al137       O146   1.782       .  S
C138        O151   1.260       .  A
C138        C178   1.496       .  S
O139        C149   1.250       .  A
O139       Al141   1.889       .  S
O140        C153   1.262       .  A
O140       Al150   1.866       .  S
Al141       O154   1.940       .  S
Al141       O151   1.899       .  S
Al141       O146   1.783       .  S
O142        C149   1.260       .  A
O142       Al150   1.927       .  S
O143        C152   1.258       .  A
O143       Al566   1.935   1_545  S
O144       Al566   1.878       .  S
O145        C152   1.252       .  A
O145       Al553   1.897   1_545  S
O146       Al150   1.788       .  S
O147        C148   1.268       .  A
C148        C338   1.507       .  S
C149        C328   1.482       .  S
Al150       O559   1.935       .  S
Al150       O560   1.878       .  S
C152        C191   1.499       .  S
C153        O154   1.271       .  A
C153        C371   1.465       .  S
O155        C170   1.243       .  A
O155       Al163   1.830       .  S
C156        O166   1.267       .  A
C156        O157   1.282       .  A
C156        C221   1.493       .  S
O157       Al159   1.984       .  S
O158        C160   1.262       .  A
O158       Al159   1.910       .  S
Al159       O167   1.895       .  S
Al159       O169   1.952       .  S
Al159       O168   1.781       .  S
C160        O173   1.265       .  A
C160        C201   1.504   1_554  S
O161        C171   1.254       .  A
O161       Al163   1.893       .  S
O162        C175   1.260       .  A
O162       Al172   1.872       .  S
Al163       O176   1.950       .  S
Al163       O173   1.922       .  S
Al163       O168   1.781       .  S
O164        C171   1.263       .  A
O164       Al172   1.929       .  S
O165        C174   1.257       .  A
O165       Al172   1.933       .  S
O166       Al172   1.875       .  S
O167        C174   1.252       .  A
O168       Al172   1.784       .  S
O169        C170   1.268       .  A
C170        C288   1.501       .  S
C171        C278   1.484       .  S
C174        C181   1.498       .  S
C175        O176   1.271       .  A
C175        C351   1.471       .  S
C177        C178   1.417       .  A
C177        C182   1.410       .  A
C177       Br184   1.939       .  S
C178        C179   1.415       .  A
C179        C180   1.414       .  A
C179       Br186   1.931       .  S
C180        C181   1.417       .  A
C180       Br185   1.935       .  S
C181        C182   1.417       .  A
C182       Br183   1.933       .  S
C187        C188   1.415       .  A
C187        C192   1.414       .  A
C187       Br194   1.930       .  S
C188        C189   1.425       .  A
C189        C190   1.414       .  A
C189       Br196   1.940       .  S
C190        C191   1.415       .  A
C190       Br611   1.935       .  S
C191        C192   1.415       .  A
C192       Br193   1.933       .  S
Br195       C606   1.935       .  S
C197        C198   1.419       .  A
C197        C202   1.415       .  A
C197       Br204   1.933       .  S
C198        C199   1.418       .  A
C199        C200   1.418       .  A
C199       Br206   1.933       .  S
C200        C201   1.416       .  A
C200       Br205   1.931       .  S
C201        C202   1.418       .  A
C202       Br203   1.937   1_556  S
C207        C208   1.422       .  A
C207        C212   1.407       .  A
C207       Br214   1.934       .  S
C208        C209   1.419       .  A
C209        C210   1.420       .  A
C209       Br216   1.931       .  S
C210        C211   1.415       .  A
C210       Br215   1.930       .  S
C211        C212   1.414       .  A
C212       Br213   1.939       .  S
C217        C218   1.420   1_554  A
C217        C222   1.423       .  A
C217       Br224   1.928       .  S
C218        C219   1.429       .  A
C219        C220   1.409   1_556  A
C219       Br226   1.930       .  S
C220        C221   1.404       .  A
C220       Br225   1.939   1_554  S
C221        C222   1.413       .  A
C222       Br223   1.928       .  S
C227        C228   1.400       .  A
C227        C232   1.401       .  A
C227       Br234   1.928       .  S
C228        C229   1.404       .  A
C229        C230   1.401       .  A
C229       Br236   1.932       .  S
C230        C231   1.408       .  A
C230       Br235   1.920       .  S
C231        C232   1.412       .  A
C232       Br233   1.922       .  S
C237        C238   1.423       .  A
C237        C242   1.416       .  A
C237       Br244   1.930       .  S
C238        C239   1.415       .  A
C239        C240   1.398       .  A
C239       Br246   1.936       .  S
C240        C241   1.409       .  A
C240       Br245   1.928       .  S
C241        C242   1.404       .  A
C242       Br243   1.927       .  S
C247        C248   1.415       .  A
C247       C1084   1.417   1_455  A
C247       Br254   1.929       .  S
C248       C1081   1.386   1_455  A
C249        C250   1.400       .  A
C249       C1080   1.386       .  A
C249       Br256   1.943       .  S
C250        C251   1.433       .  A
C250       Br255   1.908       .  S
C251        C252   1.415       .  A
C252       C1079   1.417       .  A
C252      Br1085   1.930       .  S
Br253      C1084   1.930   1_455  S
C257        C258   1.412       .  A
C257        C262   1.420       .  A
C257       Br264   1.930       .  S
C258        C259   1.404       .  A
C259        C260   1.409       .  A
C259       Br682   1.935   1_545  S
C260        C261   1.426       .  A
C260       Br265   1.935       .  S
C261        C262   1.420       .  A
C262       Br263   1.927       .  S
Br266       C675   1.935       .  S
C267        C268   1.413       .  A
C267        C272   1.416       .  A
C267       Br274   1.934   1_554  S
C268        C269   1.411       .  A
C269        C270   1.415       .  A
C269       Br276   1.931       .  S
C270        C271   1.420       .  A
C270       Br275   1.933       .  S
C271        C272   1.423       .  A
C272       Br273   1.934       .  S
C277        C278   1.400       .  A
C277        C282   1.404       .  A
C277       Br284   1.934       .  S
C278        C279   1.418       .  A
C279        C280   1.416       .  A
C279       Br286   1.931       .  S
C280        C281   1.417       .  A
C280       Br285   1.934       .  S
C281        C282   1.430       .  A
C282       Br283   1.938       .  S
C287        C292   1.413   1_565  A
C287        C704   1.415       .  A
C287       Br294   1.933   1_565  S
C288        C289   1.431       .  A
C288        C703   1.415       .  A
C289        C290   1.403       .  A
C289       Br296   1.940       .  S
C290        C707   1.399       .  A
C290       Br295   1.937       .  S
C291        C292   1.416       .  A
C291        C706   1.399   1_545  A
C292       Br293   1.931       .  S
C297        C298   1.409       .  A
C297        C302   1.399   1_554  A
C297       Br304   1.933       .  S
C298        C299   1.407       .  A
C299        C300   1.403   1_554  A
C299       Br306   1.925       .  S
C300        C301   1.409       .  A
C300       Br305   1.930       .  S
C301        C302   1.404       .  A
C302       Br303   1.919       .  S
C307        C308   1.411       .  A
C307        C312   1.423       .  A
C307       Br314   1.930       .  S
C308        C309   1.405       .  A
C309        C310   1.414       .  A
C309       Br316   1.934       .  S
C310        C311   1.431       .  A
C310       Br315   1.937       .  S
C311        C312   1.424       .  A
C312       Br313   1.929       .  S
C317        C318   1.421       .  A
C317        C322   1.414       .  A
C317       Br324   1.938       .  S
C318        C319   1.413       .  A
C319        C320   1.416       .  A
C319       Br326   1.927       .  S
C320        C321   1.416       .  A
C320       Br325   1.932       .  S
C321        C322   1.416       .  A
C322       Br323   1.933       .  S
C327        C328   1.399       .  A
C327       C1164   1.405       .  A
C327       Br334   1.934       .  S
C328        C329   1.416       .  A
C329       C1162   1.415       .  A
C329       Br336   1.931       .  S
C330        C331   1.417   1_655  A
C330       C1161   1.415       .  A
C330       Br335   1.934       .  S
C331        C332   1.430       .  A
C332       C1159   1.405   1_455  A
C332       Br333   1.935       .  S
C337        C338   1.417       .  A
C337        C342   1.416       .  A
C337       Br344   1.932       .  S
C338        C339   1.431       .  A
C339        C340   1.406       .  A
C339       Br346   1.935       .  S
C340        C341   1.398       .  A
C340       Br345   1.934       .  S
C341        C342   1.416       .  A
C342       Br343   1.930       .  S
C347        C348   1.407       .  A
C347        C352   1.406       .  A
C347       Br354   1.924       .  S
C348        C349   1.410       .  A
C349        C350   1.403       .  A
C349       Br356   1.932       .  S
C350        C351   1.406       .  A
C350       Br355   1.922       .  S
C351        C352   1.411       .  A
C352       Br353   1.931       .  S
C357        C358   1.410       .  A
C357        C362   1.417       .  A
C357      Br1196   1.930       .  S
C358        C359   1.406       .  A
C359        C360   1.412       .  A
C359       Br366   1.933   1_455  S
C360        C361   1.422       .  A
C360       Br365   1.933       .  S
C361        C362   1.419       .  A
C362       Br779   1.931       .  S
Br363       C778   1.931       .  S
Br364      C1189   1.930       .  S
C367        C368   1.409       .  A
C367        C372   1.403       .  A
C367       Br374   1.933       .  S
C368        C369   1.403       .  A
C369        C370   1.398       .  A
C369       Br376   1.916       .  S
C370        C371   1.408       .  A
C370       Br375   1.932       .  S
C371        C372   1.407       .  A
C372       Br373   1.920       .  S
C377        C378   1.392       .  A
C377        C798   1.405       .  A
C377       Br384   1.938       .  S
C378        C379   1.413       .  A
C379        C796   1.415       .  A
C379       Br386   1.931       .  S
C380        C381   1.420   1_565  A
C380        C795   1.415       .  A
C380       Br385   1.935       .  S
C381        C382   1.440       .  A
C382        C793   1.405       .  A
C382       Br383   1.940       .  S
C387        C388   1.414       .  A
C387        C392   1.413       .  A
C387       Br394   1.933       .  S
C388        C389   1.430       .  A
C389        C390   1.402       .  A
C389       Br396   1.936       .  S
C390        C391   1.396       .  A
C390       Br395   1.933       .  S
C391        C392   1.418       .  A
C392       Br393   1.932       .  S
C397        C398   1.419       .  A
C397        C402   1.413       .  A
C397       Br404   1.936       .  S
C398        C399   1.418       .  A
C399        C400   1.413       .  A
C399       Br406   1.935       .  S
C400        C401   1.420       .  A
C400       Br405   1.939       .  S
C401        C402   1.416       .  A
C402       Br403   1.933       .  S
C407        C408   1.415       .  A
C407        C412   1.415       .  A
C407       Br414   1.937       .  S
C408        C409   1.416       .  A
C409        C410   1.414       .  A
C409       Br416   1.932       .  S
C410        C411   1.423       .  A
C410       Br415   1.940       .  S
C411        C412   1.425       .  A
C412       Br413   1.936       .  S
O417        C432   1.242       .  A
O417       Al425   1.827       .  S
C418       O1260   1.264       .  A
C418        O419   1.280       .  A
C418        C774   1.485   1_655  S
O419      Al1253   1.980       .  S
O420        C422   1.263       .  A
O420       Al421   1.894       .  S
Al421      O1251   1.980       .  S
Al421      O1261   1.892       .  S
Al421       O431   1.956       .  S
Al421       O430   1.774       .  S
C422        O435   1.262       .  A
C422        C827   1.514       .  S
O423        C433   1.250       .  A
O423       Al425   1.881       .  S
O424        C437   1.258       .  A
O424       Al434   1.859       .  S
Al425       O438   1.949       .  S
Al425       O435   1.927       .  S
Al425       O430   1.778       .  S
O426        C433   1.263       .  A
O426       Al434   1.928       .  S
O427        C436   1.262   1_655  A
O427      Al1266   1.945       .  S
O428       C1250   1.264       .  A
O428       Al434   1.878       .  S
O429        C436   1.253   1_655  A
O429      Al1253   1.892       .  S
O430       Al434   1.782       .  S
O431        C432   1.268       .  A
C432        C804   1.500       .  S
C433        C794   1.477       .  S
Al434      O1259   1.945       .  S
C436        C814   1.501       .  S
C437        O438   1.272       .  A
C437        C784   1.462       .  S
O439        C454   1.246       .  A
O439       Al447   1.841       .  S
C440        O450   1.268       .  A
C440        O441   1.283       .  A
C440        C724   1.496       .  S
O441       Al443   1.985       .  S
O442        C444   1.262       .  A
O442       Al443   1.904       .  S
Al443       O451   1.899       .  S
Al443       O453   1.951       .  S
Al443       O452   1.782       .  S
C444        O457   1.260       .  A
C444        C817   1.500       .  S
O445        C455   1.250       .  A
O445       Al447   1.887       .  S
O446        C459   1.261       .  A
O446       Al456   1.872       .  S
Al447       O460   1.944       .  S
Al447       O457   1.905       .  S
Al447       O452   1.787       .  S
O448        C455   1.262       .  A
O448       Al456   1.931       .  S
O449        C458   1.259       .  A
O449       Al456   1.940       .  S
O450       Al456   1.890       .  S
O451        C458   1.253       .  A
O452       Al456   1.788       .  S
O453        C454   1.268       .  A
C454        C747   1.504       .  S
C455        C757   1.485       .  S
C458        C737   1.502       .  S
C459        O460   1.271       .  A
C459        C764   1.472       .  S
O461        C476   1.245       .  A
O461       Al469   1.837       .  S
C462        O472   1.265       .  A
C462        O463   1.284       .  A
C462        C677   1.513       .  S
O463      Al1297   1.997       .  S
O464        C466   1.267       .  A
O464       Al465   1.928       .  S
Al465      O1295   1.997   1_455  S
Al465      O1305   1.912   1_455  S
Al465       O475   1.958       .  S
Al465       O474   1.778       .  S
C466        O479   1.260       .  A
C466        C734   1.503       .  S
O467        C477   1.252       .  A
O467       Al469   1.888       .  S
O468        C481   1.261       .  A
O468       Al478   1.866       .  S
Al469       O482   1.937       .  S
Al469       O479   1.899       .  S
Al469       O474   1.782       .  S
O470        C477   1.260       .  A
O470       Al478   1.917       .  S
O471        C480   1.258       .  A
O471      Al1310   1.938       .  S
O472      Al1310   1.881       .  S
O473        C480   1.257       .  A
O473      Al1297   1.912       .  S
O474       Al478   1.778       .  S
O475        C476   1.270       .  A
C476        C697   1.506       .  S
C477        C707   1.476       .  S
Al478      O1303   1.938   1_455  S
Al478      O1304   1.881       .  S
C480        C687   1.508       .  S
C481        O482   1.269       .  A
C481        C714   1.464       .  S
O483        C498   1.257       .  A
O483       Al491   1.900       .  S
C484        O494   1.260       .  A
C484        O485   1.277       .  A
C484        C634   1.516       .  S
O485       Al487   1.965       .  S
O486        C488   1.267       .  A
O486       Al487   1.933       .  S
Al487       O495   1.932       .  S
Al487       O497   1.963       .  S
Al487       O496   1.778       .  S
C488        O501   1.266       .  A
C488        C684   1.495   1_556  S
O489        C499   1.253       .  A
O489       Al491   1.881       .  S
O490        C503   1.253       .  A
O490       Al500   1.884       .  S
Al491       O504   1.867       .  S
Al491       O501   1.916       .  S
Al491       O496   1.791       .  S
O492        C499   1.261       .  A
O492       Al500   1.912       .  S
O493        C502   1.256       .  A
O493       Al500   1.894       .  S
O494       Al500   1.898       .  S
O495        C502   1.259       .  A
O496       Al500   1.779       .  S
O497        C498   1.274       .  A
C498        C667   1.505       .  S
C499        C654   1.488       .  S
C502        C824   1.502       .  S
C503        O504   1.253       .  A
C503        C644   1.454       .  S
O505        C520   1.244       .  A
O505       Al513   1.843       .  S
C506        O516   1.265   1_565  A
C506        O507   1.276       .  A
C506        C777   1.503       .  S
O508        C510   1.262       .  A
O508       Al509   1.895       .  S
Al509       O519   1.977       .  S
Al509       O518   1.773       .  S
C510        O523   1.270       .  A
C510        C627   1.499       .  S
O511        C521   1.251       .  A
O511       Al513   1.874       .  S
O512        C525   1.256       .  A
O512       Al522   1.861       .  S
Al513       O526   1.942       .  S
Al513       O523   1.947       .  S
Al513       O518   1.773       .  S
O514        C521   1.267       .  A
O514       Al522   1.931       .  S
O515        C524   1.269       .  A
O517        C524   1.264   1_545  A
O518       Al522   1.765       .  S
O519        C520   1.269       .  A
C520        C657   1.475       .  S
C521        C664   1.474       .  S
C524        C614   1.507       .  S
C525        O526   1.268       .  A
C525        C717   1.462       .  S
O527        C542   1.244       .  A
O527       Al535   1.825       .  S
C528        O538   1.263       .  A
C528        O529   1.281       .  A
C528        C727   1.524       .  S
O529       Al531   1.989       .  S
O530        C532   1.263       .  A
O530       Al531   1.917       .  S
Al531       O539   1.881       .  S
Al531       O541   1.979       .  S
Al531       O540   1.783       .  S
C532        O545   1.256       .  A
C532        C604   1.505       .  S
O533        C543   1.251       .  A
O533       Al535   1.872       .  S
O534        C547   1.257       .  A
O534       Al544   1.876       .  S
Al535       O548   1.935       .  S
Al535       O545   1.897       .  S
Al535       O540   1.782       .  S
O536        C543   1.269       .  A
O536       Al544   1.948       .  S
O537        C546   1.264       .  A
O537       Al544   1.945       .  S
O538       Al544   1.888       .  S
O539        C546   1.252       .  A
O540       Al544   1.780       .  S
O541        C542   1.275       .  A
C542        C797   1.509       .  S
C543        C807   1.477       .  S
C546        C624   1.509       .  S
C547        O548   1.266       .  A
C547        C647   1.469       .  S
O549        C564   1.246       .  A
O549       Al557   1.842       .  S
C550        O560   1.267       .  A
C550        O551   1.283       .  A
C550        C674   1.487       .  S
O552        C554   1.261       .  A
O552       Al553   1.908       .  S
Al553       O563   1.956       .  S
Al553       O562   1.782       .  S
C554        O567   1.261       .  A
C554        C594   1.496       .  S
O555        C565   1.250       .  A
O555       Al557   1.889       .  S
O556        C569   1.262       .  A
O556       Al566   1.866       .  S
Al557       O570   1.940       .  S
Al557       O567   1.899       .  S
Al557       O562   1.783       .  S
O558        C565   1.260       .  A
O558       Al566   1.927       .  S
O559        C568   1.258       .  A
O561        C568   1.252       .  A
O562       Al566   1.788       .  S
O563        C564   1.268       .  A
C564        C754   1.507       .  S
C565        C744   1.482       .  S
C568        C607   1.499       .  S
C569        O570   1.271       .  A
C569        C787   1.465       .  S
O571        C586   1.243       .  A
O571       Al579   1.829       .  S
C572        O582   1.267       .  A
C572        O573   1.282       .  A
C572        C637   1.493       .  S
O573       Al575   1.985       .  S
O574        C576   1.262       .  A
O574       Al575   1.910       .  S
Al575       O583   1.895       .  S
Al575       O585   1.952       .  S
Al575       O584   1.781       .  S
C576        O589   1.265       .  A
C576        C617   1.504   1_554  S
O577        C587   1.254       .  A
O577       Al579   1.893       .  S
O578        C591   1.260       .  A
O578       Al588   1.872       .  S
Al579       O592   1.951       .  S
Al579       O589   1.922       .  S
Al579       O584   1.781       .  S
O580        C587   1.263       .  A
O580       Al588   1.929       .  S
O581        C590   1.257       .  A
O581       Al588   1.933       .  S
O582       Al588   1.875       .  S
O583        C590   1.252       .  A
O584       Al588   1.785       .  S
O585        C586   1.268       .  A
C586        C704   1.501       .  S
C587        C694   1.484       .  S
C590        C597   1.498       .  S
C591        O592   1.271       .  A
C591        C767   1.472       .  S
C593        C594   1.417       .  A
C593        C598   1.410       .  A
C593       Br600   1.939       .  S
C594        C595   1.415       .  A
C595        C596   1.414       .  A
C595       Br602   1.931       .  S
C596        C597   1.417       .  A
C596       Br601   1.935       .  S
C597        C598   1.418       .  A
C598       Br599   1.933       .  S
C603        C604   1.415       .  A
C603        C608   1.414       .  A
C603       Br610   1.930       .  S
C604        C605   1.424       .  A
C605        C606   1.414       .  A
C605       Br612   1.939       .  S
C606        C607   1.416       .  A
C607        C608   1.415       .  A
C608       Br609   1.933       .  S
C613        C614   1.419       .  A
C613        C618   1.415       .  A
C613       Br620   1.933       .  S
C614        C615   1.418       .  A
C615        C616   1.418       .  A
C615       Br622   1.933       .  S
C616        C617   1.416       .  A
C616       Br621   1.931       .  S
C617        C618   1.418       .  A
C618       Br619   1.937   1_556  S
C623        C624   1.422       .  A
C623        C628   1.407       .  A
C623       Br630   1.934       .  S
C624        C625   1.419       .  A
C625        C626   1.420       .  A
C625       Br632   1.931       .  S
C626        C627   1.415       .  A
C626       Br631   1.930       .  S
C627        C628   1.415       .  A
C628       Br629   1.939       .  S
C633        C634   1.420   1_554  A
C633        C638   1.423       .  A
C633       Br640   1.928       .  S
C634        C635   1.429       .  A
C635        C636   1.409   1_556  A
C635       Br642   1.930       .  S
C636        C637   1.404       .  A
C636       Br641   1.939   1_554  S
C637        C638   1.413       .  A
C638       Br639   1.928       .  S
C643        C644   1.400       .  A
C643        C648   1.401       .  A
C643       Br650   1.928       .  S
C644        C645   1.404       .  A
C645        C646   1.401       .  A
C645       Br652   1.932       .  S
C646        C647   1.409       .  A
C646       Br651   1.920       .  S
C647        C648   1.412       .  A
C648       Br649   1.922       .  S
C653        C654   1.423       .  A
C653        C658   1.416       .  A
C653       Br660   1.930       .  S
C654        C655   1.415       .  A
C655        C656   1.398       .  A
C655       Br662   1.936       .  S
C656        C657   1.410       .  A
C656       Br661   1.928       .  S
C657        C658   1.404       .  A
C658       Br659   1.927       .  S
C663        C664   1.415       .  A
C663       C1500   1.417   1_455  A
C663       Br670   1.929       .  S
C664       C1497   1.386   1_455  A
C665       C1496   1.386       .  A
C665        C666   1.400       .  A
C665       Br672   1.942       .  S
C666        C667   1.433       .  A
C666       Br671   1.909       .  S
C667        C668   1.415       .  A
C668       C1495   1.417       .  A
C668      Br1501   1.930       .  S
Br669      C1500   1.930   1_455  S
C673        C674   1.412       .  A
C673        C678   1.420       .  A
C673       Br680   1.930       .  S
C674        C675   1.404       .  A
C675        C676   1.409       .  A
C676        C677   1.426       .  A
C676       Br681   1.935       .  S
C677        C678   1.420       .  A
C678       Br679   1.927       .  S
C683        C684   1.413       .  A
C683        C688   1.416       .  A
C683       Br690   1.934   1_554  S
C684        C685   1.410       .  A
C685        C686   1.414       .  A
C685       Br692   1.931       .  S
C686        C687   1.419       .  A
C686       Br691   1.933       .  S
C687        C688   1.423       .  A
C688       Br689   1.934       .  S
C693        C694   1.400       .  A
C693        C698   1.404       .  A
C693       Br700   1.934       .  S
C694        C695   1.418       .  A
C695        C696   1.416       .  A
C695       Br702   1.930       .  S
C696        C697   1.417       .  A
C696       Br701   1.934       .  S
C697        C698   1.430       .  A
C698       Br699   1.938       .  S
C703        C708   1.413       .  A
C703       Br710   1.933       .  S
C704        C705   1.432       .  A
C705        C706   1.403       .  A
C705       Br712   1.941       .  S
C706       Br711   1.937       .  S
C707        C708   1.416       .  A
C708       Br709   1.931       .  S
C713        C714   1.409       .  A
C713        C718   1.399   1_554  A
C713       Br720   1.933       .  S
C714        C715   1.407       .  A
C715        C716   1.403   1_554  A
C715       Br722   1.926       .  S
C716        C717   1.409       .  A
C716       Br721   1.930       .  S
C717        C718   1.404       .  A
C718       Br719   1.919       .  S
C723        C724   1.411       .  A
C723        C728   1.422       .  A
C723       Br730   1.930       .  S
C724        C725   1.405       .  A
C725        C726   1.414       .  A
C725       Br732   1.934       .  S
C726        C727   1.431       .  A
C726       Br731   1.937       .  S
C727        C728   1.424       .  A
C728       Br729   1.929       .  S
C733        C734   1.421       .  A
C733        C738   1.414       .  A
C733       Br740   1.938       .  S
C734        C735   1.413       .  A
C735        C736   1.416       .  A
C735       Br742   1.927       .  S
C736        C737   1.416       .  A
C736       Br741   1.932       .  S
C737        C738   1.416       .  A
C738       Br739   1.933       .  S
C743        C744   1.399       .  A
C743       C1580   1.405       .  A
C743       Br750   1.934       .  S
C744        C745   1.416       .  A
C745       C1578   1.415       .  A
C745       Br752   1.931       .  S
C746       C1577   1.415       .  A
C746        C747   1.417   1_655  A
C746       Br751   1.934       .  S
C747        C748   1.430       .  A
C748       C1575   1.405   1_455  A
C748       Br749   1.935       .  S
C753        C754   1.417       .  A
C753        C758   1.416       .  A
C753       Br760   1.932       .  S
C754        C755   1.430       .  A
C755        C756   1.406       .  A
C755       Br762   1.935       .  S
C756        C757   1.398       .  A
C756       Br761   1.934       .  S
C757        C758   1.416       .  A
C758       Br759   1.930       .  S
C763        C764   1.407       .  A
C763        C768   1.406       .  A
C763       Br770   1.924       .  S
C764        C765   1.411       .  A
C765        C766   1.403       .  A
C765       Br772   1.932       .  S
C766        C767   1.406       .  A
C766       Br771   1.922       .  S
C767        C768   1.411       .  A
C768       Br769   1.931       .  S
C773        C774   1.410       .  A
C773        C778   1.417       .  A
C773      Br1612   1.930       .  S
C774        C775   1.406       .  A
C775        C776   1.412       .  A
C775       Br782   1.933   1_455  S
C776        C777   1.422       .  A
C776       Br781   1.933       .  S
C777        C778   1.419       .  A
Br780      C1605   1.930       .  S
C783        C784   1.410       .  A
C783        C788   1.403       .  A
C783       Br790   1.933       .  S
C784        C785   1.403       .  A
C785        C786   1.398       .  A
C785       Br792   1.916       .  S
C786        C787   1.408       .  A
C786       Br791   1.932       .  S
C787        C788   1.407       .  A
C788       Br789   1.920       .  S
C793        C794   1.392   1_545  A
C793       Br800   1.938       .  S
C794        C795   1.413       .  A
C795       Br802   1.931       .  S
C796        C797   1.420       .  A
C796       Br801   1.935       .  S
C797        C798   1.440       .  A
C798       Br799   1.940       .  S
C803        C804   1.414       .  A
C803        C808   1.414       .  A
C803       Br810   1.933       .  S
C804        C805   1.430       .  A
C805        C806   1.402       .  A
C805       Br812   1.936       .  S
C806        C807   1.396       .  A
C806       Br811   1.933       .  S
C807        C808   1.418       .  A
C808       Br809   1.932       .  S
C813        C814   1.419       .  A
C813        C818   1.413       .  A
C813       Br820   1.937       .  S
C814        C815   1.418       .  A
C815        C816   1.413       .  A
C815       Br822   1.935       .  S
C816        C817   1.420       .  A
C816       Br821   1.939       .  S
C817        C818   1.416       .  A
C818       Br819   1.933       .  S
C823        C824   1.415       .  A
C823        C828   1.415       .  A
C823       Br830   1.937       .  S
C824        C825   1.416       .  A
C825        C826   1.414       .  A
C825       Br832   1.932       .  S
C826        C827   1.423       .  A
C826       Br831   1.940       .  S
C827        C828   1.425       .  A
C828       Br829   1.936       .  S
O833        C848   1.242       .  A
O833       Al841   1.827       .  S
C834        O835   1.280       .  A
C834       C1190   1.485       .  S
O836        C838   1.263       .  A
O836       Al837   1.894       .  S
Al837       O847   1.956       .  S
Al837       O846   1.774       .  S
C838        O851   1.262       .  A
C838       C1243   1.514       .  S
O839        C849   1.250       .  A
O839       Al841   1.881       .  S
O840        C853   1.258       .  A
O840       Al850   1.859       .  S
Al841       O854   1.949       .  S
Al841       O851   1.927       .  S
Al841       O846   1.779       .  S
O842        C849   1.263       .  A
O842       Al850   1.928       .  S
O843        C852   1.262       .  A
O844       Al850   1.878       .  S
O845        C852   1.253       .  A
O846       Al850   1.782       .  S
O847        C848   1.268       .  A
C848       C1220   1.500       .  S
C849       C1210   1.477       .  S
C852       C1230   1.501       .  S
C853        O854   1.272       .  A
C853       C1200   1.462       .  S
O855        C870   1.246       .  A
O855       Al863   1.841       .  S
C856        O866   1.268       .  A
C856        O857   1.283       .  A
C856       C1140   1.496       .  S
O857       Al859   1.985       .  S
O858        C860   1.262       .  A
O858       Al859   1.904       .  S
Al859       O867   1.899       .  S
Al859       O869   1.951       .  S
Al859       O868   1.782       .  S
C860        O873   1.260       .  A
C860       C1233   1.500       .  S
O861        C871   1.250       .  A
O861       Al863   1.887       .  S
O862        C875   1.261       .  A
O862       Al872   1.872       .  S
Al863       O876   1.944       .  S
Al863       O873   1.905       .  S
Al863       O868   1.787       .  S
O864        C871   1.262       .  A
O864       Al872   1.932       .  S
O865        C874   1.259       .  A
O865       Al872   1.940       .  S
O866       Al872   1.890       .  S
O867        C874   1.253       .  A
O868       Al872   1.788       .  S
O869        C870   1.268       .  A
C870       C1163   1.504       .  S
C871       C1173   1.485       .  S
C874       C1153   1.502       .  S
C875        O876   1.271       .  A
C875       C1180   1.472       .  S
O877        C892   1.245       .  A
O877       Al885   1.837       .  S
C878        O888   1.265   1_655  A
C878        O879   1.284       .  A
C878       C1093   1.513       .  S
O880        C882   1.267       .  A
O880       Al881   1.928       .  S
Al881       O891   1.958       .  S
Al881       O890   1.778       .  S
C882        O895   1.260       .  A
C882       C1150   1.503       .  S
O883        C893   1.252       .  A
O883       Al885   1.888       .  S
O884        C897   1.261       .  A
O884       Al894   1.866       .  S
Al885       O898   1.937       .  S
Al885       O895   1.899       .  S
Al885       O890   1.782       .  S
O886        C893   1.260       .  A
O886       Al894   1.917       .  S
O887        C896   1.258       .  A
O889        C896   1.257       .  A
O890       Al894   1.778       .  S
O891        C892   1.270       .  A
C892       C1113   1.506       .  S
C893       C1123   1.476       .  S
C896       C1103   1.508       .  S
C897        O898   1.269       .  A
C897       C1130   1.464       .  S
O899        C914   1.257       .  A
O899       Al907   1.900       .  S
C900        O910   1.260       .  A
C900        O901   1.277       .  A
C900       C1050   1.516       .  S
O901       Al903   1.965       .  S
O902        C904   1.267       .  A
O902       Al903   1.933       .  S
Al903       O911   1.932       .  S
Al903       O913   1.963       .  S
Al903       O912   1.778       .  S
C904        O917   1.266       .  A
C904       C1100   1.495   1_556  S
O905        C915   1.253       .  A
O905       Al907   1.881       .  S
O906        C919   1.253       .  A
O906       Al916   1.884       .  S
Al907       O920   1.867       .  S
Al907       O917   1.916       .  S
Al907       O912   1.791       .  S
O908        C915   1.261       .  A
O908       Al916   1.912       .  S
O909        C918   1.256       .  A
O909       Al916   1.894       .  S
O910       Al916   1.898       .  S
O911        C918   1.259       .  A
O912       Al916   1.779       .  S
O913        C914   1.274       .  A
C914       C1083   1.505       .  S
C915       C1070   1.488       .  S
C918       C1240   1.502       .  S
C919        O920   1.253       .  A
C919       C1060   1.454       .  S
O921        C936   1.244       .  A
O921       Al929   1.842       .  S
C922        O932   1.265       .  A
C922        O923   1.276       .  A
C922       C1193   1.503       .  S
O923      Al1341   1.972       .  S
O924        C926   1.262       .  A
O924       Al925   1.895       .  S
Al925      O1339   1.973   1_545  S
Al925      O1349   1.913       .  S
Al925       O935   1.977       .  S
Al925       O934   1.773       .  S
C926        O939   1.270       .  A
C926       C1043   1.499       .  S
O927        C937   1.251       .  A
O927       Al929   1.874       .  S
O928        C941   1.256       .  A
O928       Al938   1.861       .  S
Al929       O942   1.942       .  S
Al929       O939   1.947       .  S
Al929       O934   1.773       .  S
O930        C937   1.267       .  A
O930       Al938   1.931       .  S
O931        C940   1.269       .  A
O931      Al1354   1.957       .  S
O932      Al1354   1.898       .  S
O933        C940   1.264       .  A
O933      Al1341   1.913       .  S
O934       Al938   1.765       .  S
O935        C936   1.269       .  A
C936       C1073   1.475       .  S
C937       C1080   1.474       .  S
Al938      O1347   1.956   1_545  S
Al938      O1348   1.898       .  S
C940       C1030   1.507       .  S
C941        O942   1.268       .  A
C941       C1133   1.462       .  S
O943        C958   1.244       .  A
O943       Al951   1.825       .  S
C944        O954   1.263       .  A
C944        O945   1.281       .  A
C944       C1143   1.524       .  S
O945       Al947   1.989       .  S
O946        C948   1.263       .  A
O946       Al947   1.917       .  S
Al947       O955   1.881       .  S
Al947       O957   1.979       .  S
Al947       O956   1.783       .  S
C948        O961   1.256       .  A
C948       C1020   1.505       .  S
O949        C959   1.251       .  A
O949       Al951   1.872       .  S
O950        C963   1.257       .  A
O950       Al960   1.876       .  S
Al951       O964   1.935       .  S
Al951       O961   1.897       .  S
Al951       O956   1.782       .  S
O952        C959   1.269       .  A
O952       Al960   1.948       .  S
O953        C962   1.264       .  A
O953       Al960   1.945       .  S
O954       Al960   1.888       .  S
O955        C962   1.252       .  A
O956       Al960   1.780       .  S
O957        C958   1.275       .  A
C958       C1213   1.509       .  S
C959       C1223   1.477       .  S
C962       C1040   1.509       .  S
C963        O964   1.266       .  A
C963       C1063   1.469       .  S
O965        C980   1.246       .  A
O965       Al973   1.842       .  S
C966        O976   1.267   1_545  A
C966        O967   1.283       .  A
C966       C1090   1.487       .  S
O967      Al1385   1.982   1_545  S
O968        C970   1.261       .  A
O968       Al969   1.908       .  S
Al969      O1383   1.982       .  S
Al969      O1393   1.897       .  S
Al969       O979   1.956       .  S
Al969       O978   1.782       .  S
C970        O983   1.261       .  A
C970       C1010   1.496       .  S
O971        C981   1.250       .  A
O971       Al973   1.889       .  S
O972        C985   1.262       .  A
O972       Al982   1.866       .  S
Al973       O986   1.940       .  S
Al973       O983   1.899       .  S
Al973       O978   1.783       .  S
O974        C981   1.260       .  A
O974       Al982   1.927       .  S
O975        C984   1.258       .  A
O975      Al1398   1.935   1_545  S
O976      Al1398   1.878       .  S
O977        C984   1.252       .  A
O977      Al1385   1.897   1_545  S
O978       Al982   1.788       .  S
O979        C980   1.268       .  A
C980       C1170   1.507       .  S
C981       C1160   1.482       .  S
Al982      O1391   1.935       .  S
Al982      O1392   1.878       .  S
C984       C1023   1.499       .  S
C985        O986   1.271       .  A
C985       C1203   1.465       .  S
O987       C1002   1.243       .  A
O987       Al995   1.829       .  S
C988        O998   1.267       .  A
C988        O989   1.282       .  A
C988       C1053   1.493       .  S
O989       Al991   1.985       .  S
O990        C992   1.262       .  A
O990       Al991   1.910       .  S
Al991       O999   1.895       .  S
Al991      O1001   1.952       .  S
Al991      O1000   1.781       .  S
C992       O1005   1.265       .  A
C992       C1033   1.504   1_554  S
O993       C1003   1.254       .  A
O993       Al995   1.893       .  S
O994       C1007   1.260       .  A
O994      Al1004   1.872       .  S
Al995      O1008   1.951       .  S
Al995      O1005   1.922       .  S
Al995      O1000   1.781       .  S
O996       C1003   1.263       .  A
O996      Al1004   1.929       .  S
O997       C1006   1.257       .  A
O997      Al1004   1.933       .  S
O998      Al1004   1.875       .  S
O999       C1006   1.252       .  A
O1000     Al1004   1.785       .  S
O1001      C1002   1.268       .  A
C1002      C1120   1.501       .  S
C1003      C1110   1.484       .  S
C1006      C1013   1.498       .  S
C1007      O1008   1.271       .  A
C1007      C1183   1.472       .  S
C1009      C1010   1.417       .  A
C1009      C1014   1.410       .  A
C1009     Br1016   1.939       .  S
C1010      C1011   1.415       .  A
C1011      C1012   1.414       .  A
C1011     Br1018   1.931       .  S
C1012      C1013   1.417       .  A
C1012     Br1017   1.935       .  S
C1013      C1014   1.418       .  A
C1014     Br1015   1.933       .  S
C1019      C1020   1.415       .  A
C1019      C1024   1.414       .  A
C1019     Br1026   1.930       .  S
C1020      C1021   1.424       .  A
C1021      C1022   1.414       .  A
C1021     Br1028   1.939       .  S
C1022      C1023   1.416       .  A
C1022     Br1443   1.935       .  S
C1023      C1024   1.415       .  A
C1024     Br1025   1.933       .  S
Br1027     C1438   1.935       .  S
C1029      C1030   1.419       .  A
C1029      C1034   1.415       .  A
C1029     Br1036   1.933       .  S
C1030      C1031   1.418       .  A
C1031      C1032   1.418       .  A
C1031     Br1038   1.933       .  S
C1032      C1033   1.416       .  A
C1032     Br1037   1.931       .  S
C1033      C1034   1.418       .  A
C1034     Br1035   1.937   1_556  S
C1039      C1040   1.422       .  A
C1039      C1044   1.407       .  A
C1039     Br1046   1.934       .  S
C1040      C1041   1.419       .  A
C1041      C1042   1.420       .  A
C1041     Br1048   1.931       .  S
C1042      C1043   1.415       .  A
C1042     Br1047   1.931       .  S
C1043      C1044   1.415       .  A
C1044     Br1045   1.939       .  S
C1049      C1050   1.420   1_554  A
C1049      C1054   1.423       .  A
C1049     Br1056   1.928       .  S
C1050      C1051   1.429       .  A
C1051      C1052   1.409   1_556  A
C1051     Br1058   1.930       .  S
C1052      C1053   1.404       .  A
C1052     Br1057   1.939   1_554  S
C1053      C1054   1.413       .  A
C1054     Br1055   1.928       .  S
C1059      C1060   1.400       .  A
C1059      C1064   1.401       .  A
C1059     Br1066   1.928       .  S
C1060      C1061   1.404       .  A
C1061      C1062   1.401       .  A
C1061     Br1068   1.932       .  S
C1062      C1063   1.409       .  A
C1062     Br1067   1.920       .  S
C1063      C1064   1.412       .  A
C1064     Br1065   1.922       .  S
C1069      C1070   1.423       .  A
C1069      C1074   1.416       .  A
C1069     Br1076   1.930       .  S
C1070      C1071   1.415       .  A
C1071      C1072   1.398       .  A
C1071     Br1078   1.936       .  S
C1072      C1073   1.410       .  A
C1072     Br1077   1.928       .  S
C1073      C1074   1.404       .  A
C1074     Br1075   1.927       .  S
C1079      C1080   1.415       .  A
C1079     Br1086   1.929       .  S
C1081      C1082   1.400       .  A
C1081     Br1088   1.942       .  S
C1082      C1083   1.433       .  A
C1082     Br1087   1.908       .  S
C1083      C1084   1.415       .  A
C1089      C1090   1.412       .  A
C1089      C1094   1.420       .  A
C1089     Br1096   1.930       .  S
C1090      C1091   1.404       .  A
C1091      C1092   1.409       .  A
C1091     Br1514   1.935   1_545  S
C1092      C1093   1.426       .  A
C1092     Br1097   1.935       .  S
C1093      C1094   1.420       .  A
C1094     Br1095   1.927       .  S
Br1098     C1507   1.935       .  S
C1099      C1100   1.413       .  A
C1099      C1104   1.416       .  A
C1099     Br1106   1.934   1_554  S
C1100      C1101   1.410       .  A
C1101      C1102   1.414       .  A
C1101     Br1108   1.931       .  S
C1102      C1103   1.419       .  A
C1102     Br1107   1.933       .  S
C1103      C1104   1.423       .  A
C1104     Br1105   1.934       .  S
C1109      C1110   1.400       .  A
C1109      C1114   1.404       .  A
C1109     Br1116   1.934       .  S
C1110      C1111   1.418       .  A
C1111      C1112   1.416       .  A
C1111     Br1118   1.930       .  S
C1112      C1113   1.417       .  A
C1112     Br1117   1.934       .  S
C1113      C1114   1.430       .  A
C1114     Br1115   1.938       .  S
C1119      C1536   1.415   1_545  A
C1119      C1124   1.413       .  A
C1119     Br1126   1.933       .  S
C1120      C1535   1.415       .  A
C1120      C1121   1.432       .  A
C1121      C1122   1.403       .  A
C1121     Br1128   1.941       .  S
C1122      C1539   1.399       .  A
C1122     Br1127   1.937       .  S
C1123      C1538   1.399   1_545  A
C1123      C1124   1.416       .  A
C1124     Br1125   1.931       .  S
C1129      C1130   1.409       .  A
C1129      C1134   1.399   1_554  A
C1129     Br1136   1.933       .  S
C1130      C1131   1.407       .  A
C1131      C1132   1.403   1_554  A
C1131     Br1138   1.926       .  S
C1132      C1133   1.409       .  A
C1132     Br1137   1.930       .  S
C1133      C1134   1.404       .  A
C1134     Br1135   1.919       .  S
C1139      C1140   1.411       .  A
C1139      C1144   1.422       .  A
C1139     Br1146   1.930       .  S
C1140      C1141   1.405       .  A
C1141      C1142   1.414       .  A
C1141     Br1148   1.934       .  S
C1142      C1143   1.431       .  A
C1142     Br1147   1.937       .  S
C1143      C1144   1.424       .  A
C1144     Br1145   1.929       .  S
C1149      C1150   1.421       .  A
C1149      C1154   1.414       .  A
C1149     Br1156   1.938       .  S
C1150      C1151   1.413       .  A
C1151      C1152   1.416       .  A
C1151     Br1158   1.927       .  S
C1152      C1153   1.416       .  A
C1152     Br1157   1.932       .  S
C1153      C1154   1.416       .  A
C1154     Br1155   1.933       .  S
C1159      C1160   1.399       .  A
C1159     Br1166   1.934   1_655  S
C1160      C1161   1.416       .  A
C1161     Br1168   1.931       .  S
C1162      C1163   1.417       .  A
C1162     Br1167   1.934       .  S
C1163      C1164   1.430       .  A
C1164     Br1165   1.935       .  S
C1169      C1170   1.417       .  A
C1169      C1174   1.416       .  A
C1169     Br1176   1.932       .  S
C1170      C1171   1.430       .  A
C1171      C1172   1.406       .  A
C1171     Br1178   1.935       .  S
C1172      C1173   1.398       .  A
C1172     Br1177   1.934       .  S
C1173      C1174   1.416       .  A
C1174     Br1175   1.930       .  S
C1179      C1180   1.407       .  A
C1179      C1184   1.406       .  A
C1179     Br1186   1.924       .  S
C1180      C1181   1.411       .  A
C1181      C1182   1.403       .  A
C1181     Br1188   1.932       .  S
C1182      C1183   1.406       .  A
C1182     Br1187   1.921       .  S
C1183      C1184   1.411       .  A
C1184     Br1185   1.931       .  S
C1189      C1190   1.410       .  A
C1189      C1194   1.417       .  A
C1190      C1191   1.406       .  A
C1191      C1192   1.412       .  A
C1191     Br1198   1.933       .  S
C1192      C1193   1.422       .  A
C1192     Br1197   1.933       .  S
C1193      C1194   1.419       .  A
C1194     Br1611   1.931       .  S
Br1195     C1610   1.931       .  S
C1199      C1200   1.410       .  A
C1199      C1204   1.403       .  A
C1199     Br1206   1.933       .  S
C1200      C1201   1.403       .  A
C1201      C1202   1.398       .  A
C1201     Br1208   1.916       .  S
C1202      C1203   1.408       .  A
C1202     Br1207   1.932       .  S
C1203      C1204   1.407       .  A
C1204     Br1205   1.920       .  S
C1209      C1210   1.392       .  A
C1209      C1630   1.405       .  A
C1209     Br1216   1.938       .  S
C1210      C1211   1.413       .  A
C1211      C1628   1.415       .  A
C1211     Br1218   1.931       .  S
C1212      C1627   1.415       .  A
C1212      C1213   1.420   1_565  A
C1212     Br1217   1.935       .  S
C1213      C1214   1.440       .  A
C1214      C1625   1.404       .  A
C1214     Br1215   1.940       .  S
C1219      C1220   1.414       .  A
C1219      C1224   1.414       .  A
C1219     Br1226   1.933       .  S
C1220      C1221   1.430       .  A
C1221      C1222   1.402       .  A
C1221     Br1228   1.936       .  S
C1222      C1223   1.396       .  A
C1222     Br1227   1.933       .  S
C1223      C1224   1.418       .  A
C1224     Br1225   1.932       .  S
C1229      C1230   1.419       .  A
C1229      C1234   1.413       .  A
C1229     Br1236   1.937       .  S
C1230      C1231   1.418       .  A
C1231      C1232   1.413       .  A
C1231     Br1238   1.935       .  S
C1232      C1233   1.420       .  A
C1232     Br1237   1.939       .  S
C1233      C1234   1.416       .  A
C1234     Br1235   1.933       .  S
C1239      C1240   1.415       .  A
C1239      C1244   1.415       .  A
C1239     Br1246   1.937       .  S
C1240      C1241   1.416       .  A
C1241      C1242   1.414       .  A
C1241     Br1248   1.932       .  S
C1242      C1243   1.423       .  A
C1242     Br1247   1.940       .  S
C1243      C1244   1.425       .  A
C1244     Br1245   1.936       .  S
O1249      C1264   1.242       .  A
O1249     Al1257   1.827       .  S
C1250      O1251   1.280       .  A
C1250      C1606   1.485       .  S
O1252      C1254   1.263       .  A
O1252     Al1253   1.893       .  S
Al1253     O1263   1.956       .  S
Al1253     O1262   1.774       .  S
C1254      O1267   1.262       .  A
C1254      C1659   1.514       .  S
O1255      C1265   1.251       .  A
O1255     Al1257   1.881       .  S
O1256      C1269   1.258       .  A
O1256     Al1266   1.859       .  S
Al1257     O1270   1.949       .  S
Al1257     O1267   1.927       .  S
Al1257     O1262   1.778       .  S
O1258      C1265   1.263       .  A
O1258     Al1266   1.929       .  S
O1259      C1268   1.262       .  A
O1260     Al1266   1.878       .  S
O1261      C1268   1.253       .  A
O1262     Al1266   1.782       .  S
O1263      C1264   1.268       .  A
C1264      C1636   1.500       .  S
C1265      C1626   1.476       .  S
C1268      C1646   1.501       .  S
C1269      O1270   1.272       .  A
C1269      C1616   1.462       .  S
O1271      C1286   1.246       .  A
O1271     Al1279   1.841       .  S
C1272      O1282   1.268       .  A
C1272      O1273   1.283       .  A
C1272      C1556   1.496       .  S
O1273     Al1275   1.985       .  S
O1274      C1276   1.262       .  A
O1274     Al1275   1.904       .  S
Al1275     O1283   1.899       .  S
Al1275     O1285   1.951       .  S
Al1275     O1284   1.782       .  S
C1276      O1289   1.260       .  A
C1276      C1649   1.500       .  S
O1277      C1287   1.250       .  A
O1277     Al1279   1.886       .  S
O1278      C1291   1.261       .  A
O1278     Al1288   1.872       .  S
Al1279     O1292   1.944       .  S
Al1279     O1289   1.905       .  S
Al1279     O1284   1.787       .  S
O1280      C1287   1.262       .  A
O1280     Al1288   1.932       .  S
O1281      C1290   1.259       .  A
O1281     Al1288   1.940       .  S
O1282     Al1288   1.890       .  S
O1283      C1290   1.253       .  A
O1284     Al1288   1.788       .  S
O1285      C1286   1.268       .  A
C1286      C1579   1.504       .  S
C1287      C1589   1.485       .  S
C1290      C1569   1.502       .  S
C1291      O1292   1.271       .  A
C1291      C1596   1.472       .  S
O1293      C1308   1.245       .  A
O1293     Al1301   1.837       .  S
C1294      O1304   1.265   1_655  A
C1294      O1295   1.284       .  A
C1294      C1509   1.513       .  S
O1296      C1298   1.267       .  A
O1296     Al1297   1.928       .  S
Al1297     O1307   1.958       .  S
Al1297     O1306   1.778       .  S
C1298      O1311   1.260       .  A
C1298      C1566   1.503       .  S
O1299      C1309   1.252       .  A
O1299     Al1301   1.888       .  S
O1300      C1313   1.261       .  A
O1300     Al1310   1.866       .  S
Al1301     O1314   1.937       .  S
Al1301     O1311   1.899       .  S
Al1301     O1306   1.782       .  S
O1302      C1309   1.260       .  A
O1302     Al1310   1.917       .  S
O1303      C1312   1.258       .  A
O1305      C1312   1.257       .  A
O1306     Al1310   1.778       .  S
O1307      C1308   1.269       .  A
C1308      C1529   1.506       .  S
C1309      C1539   1.476       .  S
C1312      C1519   1.508       .  S
C1313      O1314   1.269       .  A
C1313      C1546   1.464       .  S
O1315      C1330   1.257       .  A
O1315     Al1323   1.900       .  S
C1316      O1326   1.259       .  A
C1316      O1317   1.277       .  A
C1316      C1466   1.516       .  S
O1317     Al1319   1.965       .  S
O1318      C1320   1.267       .  A
O1318     Al1319   1.934       .  S
Al1319     O1327   1.932       .  S
Al1319     O1329   1.964       .  S
Al1319     O1328   1.778       .  S
C1320      O1333   1.266       .  A
C1320      C1516   1.495   1_556  S
O1321      C1331   1.253       .  A
O1321     Al1323   1.881       .  S
O1322      C1335   1.253       .  A
O1322     Al1332   1.883       .  S
Al1323     O1336   1.867       .  S
Al1323     O1333   1.916       .  S
Al1323     O1328   1.790       .  S
O1324      C1331   1.261       .  A
O1324     Al1332   1.913       .  S
O1325      C1334   1.256       .  A
O1325     Al1332   1.894       .  S
O1326     Al1332   1.897       .  S
O1327      C1334   1.259       .  A
O1328     Al1332   1.779       .  S
O1329      C1330   1.274       .  A
C1330      C1499   1.505       .  S
C1331      C1486   1.488       .  S
C1334      C1656   1.502       .  S
C1335      O1336   1.253       .  A
C1335      C1476   1.454       .  S
O1337      C1352   1.245       .  A
O1337     Al1345   1.843       .  S
C1338      O1348   1.265   1_565  A
C1338      O1339   1.276       .  A
C1338      C1609   1.503       .  S
O1340      C1342   1.262       .  A
O1340     Al1341   1.896       .  S
Al1341     O1351   1.977       .  S
Al1341     O1350   1.774       .  S
C1342      O1355   1.270       .  A
C1342      C1459   1.498       .  S
O1343      C1353   1.251       .  A
O1343     Al1345   1.874       .  S
O1344      C1357   1.256       .  A
O1344     Al1354   1.861       .  S
Al1345     O1358   1.942       .  S
Al1345     O1355   1.947       .  S
Al1345     O1350   1.773       .  S
O1346      C1353   1.267       .  A
O1346     Al1354   1.932       .  S
O1347      C1356   1.269       .  A
O1349      C1356   1.264   1_545  A
O1350     Al1354   1.765       .  S
O1351      C1352   1.269       .  A
C1352      C1489   1.475       .  S
C1353      C1496   1.474       .  S
C1356      C1446   1.507       .  S
C1357      O1358   1.268       .  A
C1357      C1549   1.462       .  S
O1359      C1374   1.244       .  A
O1359     Al1367   1.825       .  S
C1360      O1370   1.263       .  A
C1360      O1361   1.281       .  A
C1360      C1559   1.524       .  S
O1361     Al1363   1.990       .  S
O1362      C1364   1.263       .  A
O1362     Al1363   1.917       .  S
Al1363     O1371   1.880       .  S
Al1363     O1373   1.979       .  S
Al1363     O1372   1.783       .  S
C1364      O1377   1.256       .  A
C1364      C1436   1.505       .  S
O1365      C1375   1.251       .  A
O1365     Al1367   1.871       .  S
O1366      C1379   1.257       .  A
O1366     Al1376   1.876       .  S
Al1367     O1380   1.935       .  S
Al1367     O1377   1.897       .  S
Al1367     O1372   1.782       .  S
O1368      C1375   1.269       .  A
O1368     Al1376   1.949       .  S
O1369      C1378   1.264       .  A
O1369     Al1376   1.945       .  S
O1370     Al1376   1.888       .  S
O1371      C1378   1.252       .  A
O1372     Al1376   1.780       .  S
O1373      C1374   1.275       .  A
C1374      C1629   1.509       .  S
C1375      C1639   1.477       .  S
C1378      C1456   1.509       .  S
C1379      O1380   1.265       .  A
C1379      C1479   1.469       .  S
O1381      C1396   1.246       .  A
O1381     Al1389   1.842       .  S
C1382      O1392   1.267       .  A
C1382      O1383   1.283       .  A
C1382      C1506   1.487       .  S
O1384      C1386   1.261       .  A
O1384     Al1385   1.908       .  S
Al1385     O1395   1.955       .  S
Al1385     O1394   1.782       .  S
C1386      O1399   1.260       .  A
C1386      C1426   1.496       .  S
O1387      C1397   1.250       .  A
O1387     Al1389   1.889       .  S
O1388      C1401   1.262       .  A
O1388     Al1398   1.866       .  S
Al1389     O1402   1.940       .  S
Al1389     O1399   1.899       .  S
Al1389     O1394   1.783       .  S
O1390      C1397   1.260       .  A
O1390     Al1398   1.927       .  S
O1391      C1400   1.258       .  A
O1393      C1400   1.252       .  A
O1394     Al1398   1.788       .  S
O1395      C1396   1.268       .  A
C1396      C1586   1.506       .  S
C1397      C1576   1.482       .  S
C1400      C1439   1.499       .  S
C1401      O1402   1.271       .  A
C1401      C1619   1.465       .  S
O1403      C1418   1.243       .  A
O1403     Al1411   1.829       .  S
C1404      O1414   1.267       .  A
C1404      O1405   1.282       .  A
C1404      C1469   1.493       .  S
O1405     Al1407   1.984       .  S
O1406      C1408   1.262       .  A
O1406     Al1407   1.910       .  S
Al1407     O1415   1.895       .  S
Al1407     O1417   1.952       .  S
Al1407     O1416   1.781       .  S
C1408      O1421   1.265       .  A
C1408      C1449   1.504   1_554  S
O1409      C1419   1.254       .  A
O1409     Al1411   1.893       .  S
O1410      C1423   1.260       .  A
O1410     Al1420   1.872       .  S
Al1411     O1424   1.950       .  S
Al1411     O1421   1.921       .  S
Al1411     O1416   1.781       .  S
O1412      C1419   1.263       .  A
O1412     Al1420   1.929       .  S
O1413      C1422   1.257       .  A
O1413     Al1420   1.933       .  S
O1414     Al1420   1.875       .  S
O1415      C1422   1.252       .  A
O1416     Al1420   1.784       .  S
O1417      C1418   1.268       .  A
C1418      C1536   1.501       .  S
C1419      C1526   1.484       .  S
C1422      C1429   1.498       .  S
C1423      O1424   1.271       .  A
C1423      C1599   1.471       .  S
C1425      C1426   1.417       .  A
C1425      C1430   1.410       .  A
C1425     Br1432   1.939       .  S
C1426      C1427   1.415       .  A
C1427      C1428   1.414       .  A
C1427     Br1434   1.931       .  S
C1428      C1429   1.417       .  A
C1428     Br1433   1.935       .  S
C1429      C1430   1.417       .  A
C1430     Br1431   1.933       .  S
C1435      C1436   1.415       .  A
C1435      C1440   1.414       .  A
C1435     Br1442   1.930       .  S
C1436      C1437   1.425       .  A
C1437      C1438   1.414       .  A
C1437     Br1444   1.940       .  S
C1438      C1439   1.415       .  A
C1439      C1440   1.415       .  A
C1440     Br1441   1.933       .  S
C1445      C1446   1.419       .  A
C1445      C1450   1.415       .  A
C1445     Br1452   1.933       .  S
C1446      C1447   1.418       .  A
C1447      C1448   1.418       .  A
C1447     Br1454   1.933       .  S
C1448      C1449   1.416       .  A
C1448     Br1453   1.931       .  S
C1449      C1450   1.418       .  A
C1450     Br1451   1.937   1_556  S
C1455      C1456   1.422       .  A
C1455      C1460   1.407       .  A
C1455     Br1462   1.934       .  S
C1456      C1457   1.419       .  A
C1457      C1458   1.420       .  A
C1457     Br1464   1.931       .  S
C1458      C1459   1.415       .  A
C1458     Br1463   1.930       .  S
C1459      C1460   1.414       .  A
C1460     Br1461   1.939       .  S
C1465      C1466   1.420   1_554  A
C1465      C1470   1.423       .  A
C1465     Br1472   1.928       .  S
C1466      C1467   1.429       .  A
C1467      C1468   1.409   1_556  A
C1467     Br1474   1.931       .  S
C1468      C1469   1.404       .  A
C1468     Br1473   1.939   1_554  S
C1469      C1470   1.413       .  A
C1470     Br1471   1.928       .  S
C1475      C1476   1.400       .  A
C1475      C1480   1.401       .  A
C1475     Br1482   1.928       .  S
C1476      C1477   1.404       .  A
C1477      C1478   1.401       .  A
C1477     Br1484   1.932       .  S
C1478      C1479   1.408       .  A
C1478     Br1483   1.920       .  S
C1479      C1480   1.412       .  A
C1480     Br1481   1.922       .  S
C1485      C1486   1.423       .  A
C1485      C1490   1.416       .  A
C1485     Br1492   1.930       .  S
C1486      C1487   1.415       .  A
C1487      C1488   1.398       .  A
C1487     Br1494   1.936       .  S
C1488      C1489   1.409       .  A
C1488     Br1493   1.928       .  S
C1489      C1490   1.404       .  A
C1490     Br1491   1.927       .  S
C1495      C1496   1.415       .  A
C1495     Br1502   1.929       .  S
C1497      C1498   1.400       .  A
C1497     Br1504   1.943       .  S
C1498      C1499   1.433       .  A
C1498     Br1503   1.908       .  S
C1499      C1500   1.415       .  A
C1505      C1506   1.412       .  A
C1505      C1510   1.420       .  A
C1505     Br1512   1.930       .  S
C1506      C1507   1.404       .  A
C1507      C1508   1.409       .  A
C1508      C1509   1.426       .  A
C1508     Br1513   1.935       .  S
C1509      C1510   1.420       .  A
C1510     Br1511   1.927       .  S
C1515      C1516   1.413       .  A
C1515      C1520   1.416       .  A
C1515     Br1522   1.934   1_554  S
C1516      C1517   1.410       .  A
C1517      C1518   1.415       .  A
C1517     Br1524   1.931       .  S
C1518      C1519   1.420       .  A
C1518     Br1523   1.933       .  S
C1519      C1520   1.423       .  A
C1520     Br1521   1.934       .  S
C1525      C1526   1.400       .  A
C1525      C1530   1.404       .  A
C1525     Br1532   1.934       .  S
C1526      C1527   1.418       .  A
C1527      C1528   1.416       .  A
C1527     Br1534   1.931       .  S
C1528      C1529   1.417       .  A
C1528     Br1533   1.934       .  S
C1529      C1530   1.430       .  A
C1530     Br1531   1.938       .  S
C1535      C1540   1.413       .  A
C1535     Br1542   1.933       .  S
C1536      C1537   1.431       .  A
C1537      C1538   1.403       .  A
C1537     Br1544   1.940       .  S
C1538     Br1543   1.937       .  S
C1539      C1540   1.416       .  A
C1540     Br1541   1.931       .  S
C1545      C1546   1.409       .  A
C1545      C1550   1.399   1_554  A
C1545     Br1552   1.933       .  S
C1546      C1547   1.407       .  A
C1547      C1548   1.403   1_554  A
C1547     Br1554   1.925       .  S
C1548      C1549   1.409       .  A
C1548     Br1553   1.930       .  S
C1549      C1550   1.404       .  A
C1550     Br1551   1.919       .  S
C1555      C1556   1.411       .  A
C1555      C1560   1.423       .  A
C1555     Br1562   1.930       .  S
C1556      C1557   1.405       .  A
C1557      C1558   1.414       .  A
C1557     Br1564   1.934       .  S
C1558      C1559   1.431       .  A
C1558     Br1563   1.937       .  S
C1559      C1560   1.424       .  A
C1560     Br1561   1.929       .  S
C1565      C1566   1.421       .  A
C1565      C1570   1.414       .  A
C1565     Br1572   1.938       .  S
C1566      C1567   1.413       .  A
C1567      C1568   1.416       .  A
C1567     Br1574   1.927       .  S
C1568      C1569   1.416       .  A
C1568     Br1573   1.932       .  S
C1569      C1570   1.416       .  A
C1570     Br1571   1.933       .  S
C1575      C1576   1.399       .  A
C1575     Br1582   1.934   1_655  S
C1576      C1577   1.416       .  A
C1577     Br1584   1.931       .  S
C1578      C1579   1.417       .  A
C1578     Br1583   1.934       .  S
C1579      C1580   1.430       .  A
C1580     Br1581   1.935       .  S
C1585      C1586   1.417       .  A
C1585      C1590   1.416       .  A
C1585     Br1592   1.932       .  S
C1586      C1587   1.431       .  A
C1587      C1588   1.406       .  A
C1587     Br1594   1.936       .  S
C1588      C1589   1.398       .  A
C1588     Br1593   1.934       .  S
C1589      C1590   1.416       .  A
C1590     Br1591   1.930       .  S
C1595      C1596   1.407       .  A
C1595      C1600   1.406       .  A
C1595     Br1602   1.924       .  S
C1596      C1597   1.411       .  A
C1597      C1598   1.403       .  A
C1597     Br1604   1.932       .  S
C1598      C1599   1.406       .  A
C1598     Br1603   1.922       .  S
C1599      C1600   1.411       .  A
C1600     Br1601   1.931       .  S
C1605      C1606   1.410       .  A
C1605      C1610   1.417       .  A
C1606      C1607   1.406       .  A
C1607      C1608   1.412       .  A
C1607     Br1614   1.933       .  S
C1608      C1609   1.422       .  A
C1608     Br1613   1.933       .  S
C1609      C1610   1.419       .  A
C1615      C1616   1.409       .  A
C1615      C1620   1.403       .  A
C1615     Br1622   1.933       .  S
C1616      C1617   1.403       .  A
C1617      C1618   1.398       .  A
C1617     Br1624   1.916       .  S
C1618      C1619   1.408       .  A
C1618     Br1623   1.932       .  S
C1619      C1620   1.407       .  A
C1620     Br1621   1.920       .  S
C1625      C1626   1.392   1_545  A
C1625     Br1632   1.938       .  S
C1626      C1627   1.413       .  A
C1627     Br1634   1.931       .  S
C1628      C1629   1.420       .  A
C1628     Br1633   1.935       .  S
C1629      C1630   1.440       .  A
C1630     Br1631   1.940       .  S
C1635      C1636   1.414       .  A
C1635      C1640   1.413       .  A
C1635     Br1642   1.933       .  S
C1636      C1637   1.430       .  A
C1637      C1638   1.402       .  A
C1637     Br1644   1.936       .  S
C1638      C1639   1.396       .  A
C1638     Br1643   1.933       .  S
C1639      C1640   1.418       .  A
C1640     Br1641   1.932       .  S
C1645      C1646   1.419       .  A
C1645      C1650   1.413       .  A
C1645     Br1652   1.936       .  S
C1646      C1647   1.418       .  A
C1647      C1648   1.413       .  A
C1647     Br1654   1.935       .  S
C1648      C1649   1.420       .  A
C1648     Br1653   1.939       .  S
C1649      C1650   1.416       .  A
C1650     Br1651   1.933       .  S
C1655      C1656   1.415       .  A
C1655      C1660   1.415       .  A
C1655     Br1662   1.937       .  S
C1656      C1657   1.416       .  A
C1657      C1658   1.414       .  A
C1657     Br1664   1.932       .  S
C1658      C1659   1.423       .  A
C1658     Br1663   1.940       .  S
C1659      C1660   1.425       .  A
C1660     Br1661   1.936       .  S
