geometry optimzed in LAMMPS
_audit_creation_date              2020-12-01 
_audit_creation_method            'lammps2cif' 
_symmetry_space_group_name_H-M    'P1' 
_symmetry_Int_Tables_number       1 
_symmetry_cell_setting            triclinic 
loop_ 
_symmetry_equiv_pos_as_xyz 
  x,y,z 
_cell_length_a                    83.98077645 
_cell_length_b                    83.84832583114233 
_cell_length_c                    35.33814581638281 
_cell_angle_alpha                 89.868101782223 
_cell_angle_beta                  89.95415242190491 
_cell_angle_gamma                 120.35323597028068 
loop_ 
_atom_site_label 
_atom_site_type_symbol 
_atom_site_fract_x 
_atom_site_fract_y 
_atom_site_fract_z 
_atom_site_charge 
O1          O  0.36173445  0.87265876  0.45722149    -0.82300
C2          C  0.33192208  0.88077044  0.59384429     0.97100
O3          O  0.34883328  0.88933817  0.58478653    -0.71400
O4          O  0.36061368  0.86662029  0.56744980    -0.75000
Al5        Al  0.36189010  0.88722496  0.54225307     1.49000
C6          C  0.36211657  0.85432264  0.55017082     0.92300
O7          O  0.31928660  0.83693783  0.50984857    -0.81200
O8          O  0.32478190  0.88257771  0.46327926    -0.74800
Al9        Al  0.34076135  0.85577015  0.48525562     1.90100
O10         O  0.30419068  0.85201277  0.50893256    -0.73800
O11         O  0.33773004  0.90436853  0.52330694    -0.73700
O12         O  0.31959632  0.87300086  0.56893409    -0.79300
O13         O  0.36584597  0.90929939  0.52022780    -0.77500
O14         O  0.34188342  0.87348474  0.51475843    -1.13700
O15         O  0.37918134  0.88807110  0.50536075    -0.72900
C16         C  0.37743670  0.88350590  0.47084187     0.97900
C17         C  0.30420020  0.83688470  0.51006473     0.94300
Al18       Al  0.32306220  0.87762283  0.51611147     1.55600
O19         O  0.35564595  0.84964365  0.51711141    -0.77500
C20         C  0.35489678  0.91536595  0.51914814     0.98400
C21         C  0.32379059  0.87152403  0.43792410     0.93300
O22         O  0.32633242  0.85827637  0.44604486    -0.82800
O23         O  0.36621713  0.87220141  0.96540190    -0.82300
C24         C  0.33137032  0.87905370  0.09623148     0.97100
O25         O  0.34851189  0.88692414  0.09001154    -0.71400
O26         O  0.35927086  0.86318900  0.07501872    -0.75000
Al27       Al  0.36276732  0.88479101  0.05028501     1.49000
C28         C  0.36121365  0.85105900  0.05812062     0.92300
O29         O  0.32116830  0.83605459  0.00978595    -0.81200
O30         O  0.32900967  0.88254556  0.96438103    -0.74800
Al31       Al  0.34375689  0.85498491  0.98929564     1.90100
O32         O  0.30656013  0.85163169  0.00806556    -0.73800
O33         O  0.34069553  0.90347628  0.02574683    -0.73700
O34         O  0.32001110  0.87183386  0.06948746    -0.79300
O35         O  0.36856705  0.90758758  0.02897140    -0.77500
O36         O  0.34397781  0.87222181  0.01901143    -1.13700
O37         O  0.38128136  0.88561931  0.01731990    -0.72900
C38         C  0.38123464  0.88214961  0.98253011     0.97900
C39         C  0.30627884  0.83636627  0.00933298     0.94300
Al40       Al  0.32555245  0.87696388  0.01713632     1.55600
O41         O  0.35659754  0.84749600  0.02375748    -0.77500
C42         C  0.35805653  0.91407175  0.02492543     0.98400
C43         C  0.32888961  0.87188311  0.93906902     0.93300
O44         O  0.33139900  0.85869482  0.94772429    -0.82800
O45         O  0.49205600  0.13014206  0.05253807    -0.82300
C46         C  0.44577055  0.11665965  0.92623104     0.97100
O47         O  0.45459124  0.10858250  0.93430989    -0.71400
O48         O  0.48982562  0.13291417  0.94247967    -0.75000
Al49       Al  0.47240323  0.11280039  0.97244593     1.49000
C50         C  0.50410426  0.14679003  0.95535460     0.92300
O51         O  0.48064914  0.16369163  0.00513847    -0.81200
O52         O  0.44357014  0.11882248  0.05868686    -0.74800
Al53       Al  0.48537907  0.14571044  0.02692086     1.90100
O54         O  0.45054709  0.14770331  0.01089420    -0.73800
O55         O  0.43238336  0.09565191  0.00078789    -0.73700
O56         O  0.44258911  0.12542647  0.95139221    -0.79300
O57         O  0.45587424  0.09117661  0.99921202    -0.77500
O58         O  0.46735369  0.12703993  0.00134116    -1.13700
O59         O  0.49133133  0.11369925  0.00393611    -0.72900
C60         C  0.49628345  0.11921964  0.03734766     0.97900
C61         C  0.46535528  0.16309747  0.00771887     0.94300
Al62       Al  0.44416986  0.12233912  0.00499848     1.55600
O63         O  0.50428293  0.15211957  0.98893937    -0.77500
C64         C  0.43887608  0.08497216  0.00394371     0.98400
C65         C  0.45539421  0.12986955  0.08204708     0.93300
O66         O  0.47072324  0.14300289  0.07055315    -0.82800
O67         O  0.48781542  0.13324275  0.55745702    -0.82300
C68         C  0.44359659  0.11696396  0.42739340     0.97100
O69         O  0.45226329  0.10898636  0.43775806    -0.71400
O70         O  0.48726577  0.13288940  0.44750822    -0.75000
Al71       Al  0.46929999  0.11360599  0.47802960     1.49000
C72         C  0.50140943  0.14709223  0.45964266     0.92300
O73         O  0.47704235  0.16516011  0.50222604    -0.81200
O74         O  0.43957532  0.12118823  0.55886549    -0.74800
Al75       Al  0.48156396  0.14794969  0.52811982     1.90100
O76         O  0.44696767  0.14938876  0.50851736    -0.73800
O77         O  0.42887075  0.09714301  0.50215938    -0.73700
O78         O  0.43992639  0.12602999  0.45096505    -0.79300
O79         O  0.45213600  0.09242719  0.50551209    -0.77500
O80         O  0.46392744  0.12854532  0.50349133    -1.13700
O81         O  0.48753927  0.11507777  0.51275330    -0.72900
C82         C  0.49199721  0.12169274  0.54567186     0.97900
C83         C  0.46181403  0.16471610  0.50456521     0.94300
Al84       Al  0.44072858  0.12385586  0.50487952     1.55600
O85         O  0.50117358  0.15345461  0.49200104    -0.77500
C86         C  0.43505216  0.08634062  0.50760742     0.98400
C87         C  0.45075108  0.13328127  0.58170075     0.93300
O88         O  0.46615200  0.14630835  0.57003366    -0.82800
O89         O  0.63170086  0.13483018  0.21616328    -0.82300
C90         C  0.66596793  0.12712745  0.34621428     0.97100
O91         O  0.64893923  0.11776368  0.33875080    -0.71400
O92         O  0.63556510  0.13949262  0.32642943    -0.75000
Al93       Al  0.63453923  0.11967502  0.29887536     1.49000
C94         C  0.63349412  0.15205580  0.31192814     0.92300
O95         O  0.67477949  0.17129742  0.26545131    -0.81200
O96         O  0.67098042  0.12753426  0.21415833    -0.74800
Al97       Al  0.65307096  0.15206532  0.24242488     1.90100
O98         O  0.69095958  0.15745187  0.26076132    -0.73800
O99         O  0.65978985  0.10482889  0.27326315    -0.73700
O100        O  0.67760922  0.13562325  0.32031392    -0.79300
O101        O  0.63104471  0.09815388  0.27491682    -0.77500
O102        O  0.65362463  0.13445821  0.26963258    -1.13700
O103        O  0.61596658  0.11833682  0.26524679    -0.72900
C104        C  0.61659697  0.12315190  0.23109679     0.97900
C105        C  0.69021275  0.17210587  0.26400594     0.94300
Al106      Al  0.67323958  0.13159248  0.26743354     1.55600
O107        O  0.63855001  0.15712055  0.27809867    -0.77500
C108        C  0.64271257  0.09307430  0.27112613     0.98400
C109        C  0.67065792  0.13853732  0.19008901     0.93300
O110        O  0.66682157  0.15068366  0.20025791    -0.82800
O111        O  0.63249773  0.13496686  0.70719291    -0.82300
C112        C  0.65766836  0.12183471  0.84501193     0.97100
O113        O  0.64124830  0.11335715  0.83298894    -0.71400
O114        O  0.63190672  0.13793952  0.81753575    -0.75000
Al115      Al  0.62995740  0.11766308  0.79033607     1.49000
C116        C  0.63268026  0.15201560  0.80282086     0.92300
O117        O  0.67485913  0.16786047  0.76289451    -0.81200
O118        O  0.66848608  0.12246734  0.71514071    -0.74800
Al119      Al  0.65335796  0.15028829  0.73697992     1.90100
O120        O  0.68868247  0.15161176  0.76292758    -0.73800
O121        O  0.65331212  0.09993679  0.77376793    -0.73700
O122        O  0.67100664  0.13006918  0.82208203    -0.79300
O123        O  0.62570167  0.09594752  0.76562895    -0.77500
O124        O  0.65078630  0.13155397  0.76528852    -1.13700
O125        O  0.61395833  0.11888257  0.75347718    -0.72900
C126        C  0.61647508  0.12423099  0.71946452     0.97900
C127        C  0.68947150  0.16708170  0.76377068     0.94300
Al128      Al  0.66895701  0.12646661  0.76835939     1.55600
O129        O  0.63916487  0.15712259  0.76975118    -0.77500
C130        C  0.63636718  0.08950076  0.76638467     0.98400
C131        C  0.66998235  0.13389264  0.68993848     0.93300
O132        O  0.66754266  0.14720906  0.69808409    -0.82800
O133        O  0.50871644  0.87636553  0.31253484    -0.82300
C134        C  0.54856082  0.88917524  0.17613634     0.97100
O135        O  0.53970531  0.89693516  0.18649769    -0.71400
O136        O  0.50534286  0.87220777  0.20177097    -0.75000
Al137      Al  0.52367119  0.89283308  0.22865986     1.49000
C138        C  0.49175373  0.85869260  0.21753147     0.92300
O139        O  0.51801900  0.84324514  0.25785272    -0.81200
O140        O  0.55693321  0.88870482  0.30755238    -0.74800
Al141      Al  0.51415835  0.86079720  0.28354243     1.90100
O142        O  0.54825657  0.85908105  0.25973738    -0.73800
O143        O  0.56503544  0.91151167  0.24834457    -0.73700
O144        O  0.55323062  0.88105771  0.20011502    -0.79300
O145        O  0.54085272  0.91479377  0.25250604    -0.77500
O146        O  0.53060326  0.87940453  0.25527102    -1.13700
O147        O  0.50611739  0.89177768  0.26512748    -0.72900
C148        C  0.50320539  0.88672467  0.29941549     0.97900
C149        C  0.53325944  0.84366254  0.25794819     0.94300
Al150      Al  0.55399121  0.88465887  0.25388408     1.55600
O151        O  0.49327431  0.85397363  0.25077721    -0.77500
C152        C  0.55806674  0.92171391  0.25340133     0.98400
C153        C  0.54681486  0.87684447  0.33205855     0.93300
O154        O  0.53107832  0.86360204  0.32301360    -0.82800
O155        O  0.50768603  0.87580849  0.80703578    -0.82300
C156        C  0.55078502  0.88840098  0.67495379     0.97100
O157        O  0.54181910  0.89614095  0.68443372    -0.71400
O158        O  0.50659829  0.87252340  0.69613007    -0.75000
Al159      Al  0.52512424  0.89241937  0.72468694     1.49000
C160        C  0.49234500  0.85919240  0.71068195     0.92300
O161        O  0.51579413  0.84122986  0.75449171    -0.81200
O162        O  0.55512166  0.88492929  0.80720643    -0.74800
Al163      Al  0.51260291  0.85952406  0.77900618     1.90100
O164        O  0.54601275  0.85587789  0.75783517    -0.73800
O165        O  0.56565147  0.90851416  0.74920094    -0.73700
O166        O  0.55402438  0.87916026  0.69898563    -0.79300
O167        O  0.54264530  0.91378959  0.75006785    -0.77500
O168        O  0.53034951  0.87784376  0.75208068    -1.13700
O169        O  0.50736585  0.89217469  0.75900806    -0.72900
C170        C  0.50343943  0.88699386  0.79301474     0.97900
C171        C  0.53066015  0.84089493  0.75553856     0.94300
Al172      Al  0.55331081  0.88176045  0.75307899     1.55600
O173        O  0.49285264  0.85403047  0.74410585    -0.77500
C174        C  0.55962971  0.91956061  0.75296969     0.98400
C175        C  0.54386145  0.87331398  0.83080891     0.93300
O176        O  0.52800911  0.86097143  0.82017797    -0.82800
O177        O  0.63395854  0.50692713  0.38669789    -0.82300
C178        C  0.66421119  0.54693332  0.25202252     0.97100
O179        O  0.64742069  0.53929599  0.26166964    -0.71400
O180        O  0.63558497  0.50449758  0.27605090    -0.75000
Al181      Al  0.63431982  0.52318184  0.30330908     1.49000
C182        C  0.63482853  0.49045742  0.29086324     0.92300
O183        O  0.67604283  0.51431121  0.33307189    -0.81200
O184        O  0.67216502  0.55453136  0.38304974    -0.74800
Al185      Al  0.65486339  0.51145654  0.35827584     1.90100
O186        O  0.69195329  0.54456307  0.33606258    -0.73800
O187        O  0.65919215  0.56417078  0.32354311    -0.73700
O188        O  0.67657413  0.55083939  0.27655674    -0.79300
O189        O  0.63079344  0.54105728  0.32763395    -0.77500
O190        O  0.65420817  0.52877359  0.33041997    -1.13700
O191        O  0.61679575  0.50580771  0.33895416    -0.72900
C192        C  0.61836175  0.50240234  0.37319063     0.97900
C193        C  0.69138361  0.52917488  0.33396478     0.94300
Al194      Al  0.67344247  0.55171439  0.32969382     1.55600
O195        O  0.64014283  0.49104632  0.32460278    -0.77500
C196        C  0.64211971  0.55814721  0.32855176     0.98400
C197        C  0.67321897  0.54396601  0.40725551     0.93300
O198        O  0.66943733  0.52782033  0.39826534    -0.82800
O199        O  0.63594893  0.50845764  0.87975286    -0.82300
C200        C  0.66730007  0.55174283  0.74871584     0.97100
O201        O  0.65034070  0.54300364  0.75740040    -0.71400
O202        O  0.63934841  0.50800581  0.76933667    -0.75000
Al203      Al  0.63694138  0.52591349  0.79738110     1.49000
C204        C  0.63875150  0.49398621  0.78398874     0.92300
O205        O  0.67983711  0.51916653  0.82927879    -0.81200
O206        O  0.67208942  0.55691464  0.87958677    -0.74800
Al207      Al  0.65773702  0.51471327  0.85286134     1.90100
O208        O  0.69449993  0.54927197  0.83507090    -0.73800
O209        O  0.66015068  0.56672408  0.81938817    -0.73700
O210        O  0.67952770  0.55531496  0.77348907    -0.79300
O211        O  0.63216374  0.54286252  0.82247752    -0.77500
O212        O  0.65660518  0.53187830  0.82549645    -1.13700
O213        O  0.61929852  0.50750276  0.83122842    -0.72900
C214        C  0.62044308  0.50323310  0.86502737     0.97900
C215        C  0.69476479  0.53431492  0.83255098     0.94300
Al216      Al  0.67515053  0.55520318  0.82664469     1.55600
O217        O  0.64441978  0.49470139  0.81749612    -0.77500
C218        C  0.64296606  0.56006393  0.82410187     0.98400
C219        C  0.67240669  0.54611777  0.90421151     0.93300
O220        O  0.67071115  0.53078768  0.89459780    -0.82800
O221        O  0.49399206  0.36692132  0.04624911    -0.82300
C222        C  0.44996019  0.33523833  0.17576956     0.97100
O223        O  0.45829764  0.35220204  0.16699822    -0.71400
O224        O  0.49312627  0.36285089  0.15690986    -0.75000
Al225      Al  0.47583778  0.36559941  0.12764379     1.49000
C226        C  0.50732335  0.36349577  0.14335693     0.92300
O227        O  0.48329293  0.32299532  0.09697589    -0.81200
O228        O  0.44563973  0.32976875  0.04373741    -0.74800
Al229      Al  0.48775428  0.34509536  0.07318891     1.90100
O230        O  0.45321792  0.30808821  0.09077427    -0.73800
O231        O  0.43544053  0.34251437  0.10257930    -0.73700
O232        O  0.44629284  0.32313963  0.15065302    -0.79300
O233        O  0.45941205  0.37055533  0.10116162    -0.77500
O234        O  0.47021018  0.34599574  0.09939769    -1.13700
O235        O  0.49474968  0.38343746  0.09484540    -0.72900
C236        C  0.49912972  0.38240952  0.06110166     0.97900
C237        C  0.46822034  0.30797334  0.09385038     0.94300
Al238      Al  0.44697936  0.32735017  0.09732210     1.55600
O239        O  0.50731156  0.35845179  0.10958589    -0.77500
C240        C  0.44230249  0.35978531  0.09794547     0.98400
C241        C  0.45658900  0.32892745  0.02029637     0.93300
O242        O  0.47227065  0.33193268  0.03090285    -0.82800
O243        O  0.48741796  0.36724455  0.53538397    -0.82300
C244        C  0.45252579  0.33997977  0.67668593     0.97100
O245        O  0.46091498  0.35664577  0.66562079    -0.71400
O246        O  0.49498142  0.36875061  0.64445039    -0.75000
Al247      Al  0.47481367  0.36900093  0.62125227     1.49000
C248        C  0.50823673  0.36924063  0.62674385     0.92300
O249        O  0.48153708  0.32580163  0.59004550    -0.81200
O250        O  0.44023630  0.33023674  0.54687463    -0.74800
Al251      Al  0.48378599  0.34683275  0.56455881     1.90100
O252        O  0.45128889  0.31037931  0.59142072    -0.73800
O253        O  0.43301320  0.34375949  0.60801897    -0.73700
O254        O  0.44743755  0.32694638  0.65305176    -0.79300
O255        O  0.45580806  0.37211046  0.60131715    -0.77500
O256        O  0.46788777  0.34840133  0.59539482    -1.13700
O257        O  0.49014486  0.38563726  0.58202161    -0.72900
C258        C  0.49227302  0.38316497  0.54751640     0.97900
C259        C  0.46648850  0.31057053  0.59072366     0.94300
Al260      Al  0.44488570  0.32934511  0.59965595     1.55600
O261        O  0.50566611  0.36217062  0.59413332    -0.77500
C262        C  0.43877110  0.36076406  0.60297639     0.98400
C263        C  0.44988535  0.32918364  0.52057515     0.93300
O264        O  0.46581262  0.33179796  0.52741810    -0.82800
O265        O  0.51071031  0.64231635  0.28650523    -0.82300
C266        C  0.55327200  0.67139224  0.41886876     0.97100
O267        O  0.54440059  0.65457750  0.40911941    -0.71400
O268        O  0.50963863  0.64281900  0.39612675    -0.75000
Al269      Al  0.52821666  0.64176972  0.36784517     1.49000
C270        C  0.49575453  0.64285928  0.38283054     0.92300
O271        O  0.52114646  0.68574880  0.33931198    -0.81200
O272        O  0.55917634  0.67909764  0.28687282    -0.74800
Al273      Al  0.51675008  0.66359817  0.31485222     1.90100
O274        O  0.55128755  0.69998558  0.33506259    -0.73800
O275        O  0.56911637  0.66605722  0.34545696    -0.73700
O276        O  0.55760850  0.68405374  0.39448064    -0.79300
O277        O  0.54586095  0.63781241  0.34292699    -0.77500
O278        O  0.53403162  0.66205415  0.34132651    -1.13700
O279        O  0.51081353  0.62472039  0.33225819    -0.72900
C280        C  0.50676803  0.62665153  0.29881377     0.97900
C281        C  0.53655337  0.70059638  0.33732014     0.94300
Al282      Al  0.55733834  0.68076411  0.34066501     1.55600
O283        O  0.49651603  0.64946501  0.35014159    -0.77500
C284        C  0.56295177  0.64895843  0.34107369     0.98400
C285        C  0.54839811  0.68000491  0.26306228     0.93300
O286        O  0.53276957  0.67728460  0.27341436    -0.82800
O287        O  0.50799538  0.64139422  0.79223987    -0.82300
C288        C  0.55371714  0.67073658  0.92026868     0.97100
O289        O  0.54487823  0.65392647  0.91036039    -0.71400
O290        O  0.50962428  0.64139750  0.90137210    -0.75000
Al291      Al  0.52777319  0.64092873  0.87037521     1.49000
C292        C  0.49563020  0.64190980  0.89038101     0.92300
O293        O  0.51936583  0.68456258  0.84648564    -0.81200
O294        O  0.55639466  0.67837589  0.78850434    -0.74800
Al295      Al  0.51463842  0.66257551  0.82117087     1.90100
O296        O  0.54931054  0.69924244  0.83862914    -0.73800
O297        O  0.56808892  0.66603709  0.84559028    -0.73700
O298        O  0.55699331  0.68345784  0.89661581    -0.79300
O299        O  0.54517118  0.63762589  0.84273554    -0.77500
O300        O  0.53263961  0.66124520  0.84497460    -1.13700
O301        O  0.50963824  0.62364836  0.83565066    -0.72900
C302        C  0.50465685  0.62573159  0.80317439     0.97900
C303        C  0.53451155  0.69953982  0.84309744     0.94300
Al304      Al  0.55577781  0.68026529  0.84263343     1.55600
O305        O  0.49560019  0.64860361  0.85827046    -0.77500
C306        C  0.56221110  0.64902046  0.84087383     0.98400
C307        C  0.54455011  0.67815342  0.76595409     0.93300
O308        O  0.52949516  0.67610624  0.77851509    -0.82800
O309        O  0.36887024  0.49839934  0.14436629    -0.82300
C310        C  0.33892550  0.46030573  0.00826271     0.97100
O311        O  0.35544002  0.46699848  0.01912585    -0.71400
O312        O  0.36828613  0.50177896  0.03428060    -0.75000
Al313      Al  0.36849559  0.48241355  0.06113309     1.49000
C314        C  0.36896789  0.51581200  0.04882278     0.92300
O315        O  0.32720327  0.49239414  0.09186121    -0.81200
O316        O  0.32989001  0.45095658  0.13837422    -0.74800
Al317      Al  0.34821889  0.49448581  0.11617085     1.90100
O318        O  0.31064422  0.46218072  0.09284282    -0.73800
O319        O  0.34236175  0.44151866  0.07879466    -0.73700
O320        O  0.32618431  0.45632150  0.03212306    -0.79300
O321        O  0.37102095  0.46370465  0.08518154    -0.77500
O322        O  0.34848209  0.47721071  0.08754658    -1.13700
O323        O  0.38602780  0.49907990  0.09711599    -0.72900
C324        C  0.38437674  0.50242117  0.13124534     0.97900
C325        C  0.31165145  0.47779225  0.09226341     0.94300
Al326      Al  0.32878415  0.45454439  0.08556050     1.55600
O327        O  0.36323821  0.51511475  0.08234737    -0.77500
C328        C  0.35919906  0.44672661  0.08466571     0.98400
C329        C  0.33019151  0.46155457  0.16409061     0.93300
O330        O  0.33367205  0.47776286  0.15618718    -0.82800
O331        O  0.36624771  0.50134298  0.63795993    -0.82300
C332        C  0.33465437  0.45784819  0.50816787     0.97100
O333        O  0.35158437  0.46611302  0.51690268    -0.71400
O334        O  0.36387564  0.50133414  0.52728302    -0.75000
Al335      Al  0.36515072  0.48320690  0.55677649     1.49000
C336        C  0.36520731  0.51590779  0.54041696     0.92300
O337        O  0.32335220  0.49270912  0.58561510    -0.81200
O338        O  0.32816253  0.45382974  0.63944196    -0.74800
Al339      Al  0.34509578  0.49625662  0.61008762     1.90100
O340        O  0.30785940  0.46250891  0.59132511    -0.73800
O341        O  0.34039877  0.44275907  0.58169014    -0.73700
O342        O  0.32254365  0.45469450  0.53292703    -0.79300
O343        O  0.36880587  0.46592883  0.58333528    -0.77500
O344        O  0.34546577  0.47830019  0.58415450    -1.13700
O345        O  0.38309583  0.50132506  0.59066947    -0.72900
C346        C  0.38168820  0.50518715  0.62462048     0.97900
C347        C  0.30812221  0.47768438  0.58765469     0.94300
Al348      Al  0.32626838  0.45531595  0.58605384     1.55600
O349        O  0.35967795  0.51601587  0.57380952    -0.77500
C350        C  0.35747215  0.44893012  0.58658171     0.98400
C351        C  0.32785818  0.46498634  0.66300731     0.93300
O352        O  0.33115423  0.48081825  0.65231461    -0.82800
O353        O  0.12746761  0.49076773  0.12078040    -0.82300
C354        C  0.12046714  0.45338715  0.25797830     0.97100
O355        O  0.11156441  0.46130807  0.24885287    -0.71400
O356        O  0.13375374  0.49595393  0.23053693    -0.75000
Al357      Al  0.11326665  0.47628088  0.20602642     1.49000
C358        C  0.14645512  0.50979412  0.21364655     0.92300
O359        O  0.16364605  0.48479786  0.17209196    -0.81200
O360        O  0.11777760  0.44372645  0.12808028    -0.74800
Al361      Al  0.14455972  0.48703168  0.14825077     1.90100
O362        O  0.14883324  0.45449326  0.17186732    -0.73800
O363        O  0.09688515  0.43493427  0.18914994    -0.73700
O364        O  0.12845752  0.44913681  0.23304678    -0.79300
O365        O  0.09120285  0.45757772  0.18458772    -0.77500
O366        O  0.12712970  0.47030834  0.17845527    -1.13700
O367        O  0.11199655  0.49250278  0.16899996    -0.72900
C368        C  0.11632007  0.49514052  0.13430796     0.97900
C369        C  0.16386772  0.46983924  0.17247785     0.94300
Al370      Al  0.12334350  0.44742458  0.18045679     1.55600
O371        O  0.15092582  0.50819281  0.18022614    -0.77500
C372        C  0.08557520  0.44054912  0.18459833     0.98400
C373        C  0.12828195  0.45385567  0.10190361     0.93300
O374        O  0.14168949  0.46982397  0.10908269    -0.82800
O375        O  0.12683116  0.49320626  0.62849497    -0.82300
C376        C  0.11607363  0.45043103  0.75883671     0.97100
O377        O  0.10834868  0.45971299  0.75169450    -0.71400
O378        O  0.13271995  0.49448609  0.73869136    -0.75000
Al379      Al  0.11173180  0.47669785  0.71186573     1.49000
C380        C  0.14598677  0.50852311  0.72347807     0.92300
O381        O  0.16089951  0.48336268  0.67659382    -0.81200
O382        O  0.11482426  0.44551548  0.62739860    -0.74800
Al383      Al  0.14294398  0.48762163  0.65416981     1.90100
O384        O  0.14488526  0.45311174  0.67204238    -0.73800
O385        O  0.09282022  0.43579441  0.68736403    -0.73700
O386        O  0.12369875  0.44635451  0.73282326    -0.79300
O387        O  0.08947644  0.46001505  0.68845858    -0.77500
O388        O  0.12477816  0.47046236  0.68228191    -1.13700
O389        O  0.11209238  0.49492316  0.67809808    -0.72900
C390        C  0.11631675  0.49803321  0.64342337     0.97900
C391        C  0.16032976  0.46806720  0.67387270     0.94300
Al392      Al  0.11950538  0.44706494  0.68023757     1.55600
O393        O  0.15014725  0.50792064  0.68926379    -0.77500
C394        C  0.08259582  0.44286417  0.68500918     0.98400
C395        C  0.12629991  0.45604700  0.60289654     0.93300
O396        O  0.13972213  0.47160747  0.61235344    -0.82800
O397        O  0.12890327  0.63487983  0.47801236    -0.82300
C398        C  0.11763460  0.66259409  0.34269224     0.97100
O399        O  0.10860013  0.64577725  0.35276501    -0.71400
O400        O  0.13117829  0.63386477  0.36810306    -0.75000
Al401      Al  0.11145396  0.63317672  0.39537110     1.49000
C402        C  0.14496020  0.63402707  0.38248520     0.92300
O403        O  0.16226635  0.67664148  0.42141415    -0.81200
O404        O  0.11749000  0.67092795  0.47276900    -0.74800
Al405      Al  0.14452391  0.65543438  0.44817597     1.90100
O406        O  0.14734491  0.69170772  0.42610506    -0.73800
O407        O  0.09503425  0.65780511  0.41352807    -0.73700
O408        O  0.12574968  0.67528664  0.36684877    -0.79300
O409        O  0.08996138  0.62970330  0.41948429    -0.77500
O410        O  0.12593400  0.65363908  0.42094708    -1.13700
O411        O  0.11140926  0.61650460  0.43286334    -0.72900
C412        C  0.11706774  0.61904539  0.46670296     0.97900
C413        C  0.16241126  0.69174250  0.42302961     0.94300
Al414      Al  0.12174634  0.67245635  0.41973927     1.55600
O415        O  0.15041056  0.64070479  0.41516836    -0.77500
C416        C  0.08403004  0.64077896  0.41955391     0.98400
C417        C  0.12896674  0.67202333  0.49727081     0.93300
O418        O  0.14237540  0.66994410  0.48785935    -0.82800
O419        O  0.12967812  0.63195752  0.97146603    -0.82300
C420        C  0.12014233  0.66478775  0.84133004     0.97100
O421        O  0.11092349  0.64772280  0.84941202    -0.71400
O422        O  0.13340477  0.63529849  0.86145546    -0.75000
Al423      Al  0.11354400  0.63367645  0.88958202     1.49000
C424        C  0.14696090  0.63473304  0.87507311     0.92300
O425        O  0.16457697  0.67578471  0.92156146    -0.81200
O426        O  0.11950594  0.66920684  0.97206481    -0.74800
Al427      Al  0.14606637  0.65361079  0.94476176     1.90100
O428        O  0.14967788  0.69084601  0.92737167    -0.73800
O429        O  0.09747217  0.65798676  0.91256946    -0.73700
O430        O  0.12855859  0.67665545  0.86681687    -0.79300
O431        O  0.09211116  0.62965162  0.91477462    -0.77500
O432        O  0.12801145  0.65316690  0.91775774    -1.13700
O433        O  0.11301538  0.61543032  0.92362797    -0.72900
C434        C  0.11796603  0.61660095  0.95777038     0.97900
C435        C  0.16472383  0.69087125  0.92439900     0.94300
Al436      Al  0.12415546  0.67218844  0.91942502     1.55600
O437        O  0.15208454  0.63996984  0.90874462    -0.77500
C438        C  0.08640250  0.64086794  0.91736306     0.98400
C439        C  0.13043904  0.66916492  0.99651992     0.93300
O440        O  0.14362465  0.66677886  0.98687322    -0.82800
O441        O  0.86948258  0.50940208  0.37252722    -0.82300
C442        C  0.88055849  0.55168256  0.50351086     0.97100
O443        O  0.88930488  0.54350881  0.49523310    -0.71400
O444        O  0.86672074  0.50846375  0.48281928    -0.75000
Al445      Al  0.88646418  0.52708127  0.45453266     1.49000
C446        C  0.85354806  0.49401953  0.46893232     0.92300
O447        O  0.83521334  0.51777280  0.42535901    -0.81200
O448        O  0.87973917  0.55661153  0.37158149    -0.74800
Al449      Al  0.85340183  0.51430090  0.40057978     1.90100
O450        O  0.85038547  0.54796960  0.41920974    -0.73800
O451        O  0.90257952  0.56768567  0.43050968    -0.73700
O452        O  0.87233609  0.55542156  0.47814282    -0.79300
O453        O  0.90805146  0.54486981  0.42977659    -0.77500
O454        O  0.87189800  0.53211618  0.42690562    -1.13700
O455        O  0.88667706  0.50966911  0.41949204    -0.72900
C456        C  0.88135108  0.50590744  0.38551326     0.97900
C457        C  0.83528338  0.53286984  0.42304893     0.94300
Al458      Al  0.87593433  0.55507782  0.42510030     1.55600
O459        O  0.84798976  0.49430330  0.43576618    -0.77500
C460        C  0.91380429  0.56188328  0.42746487     0.98400
C461        C  0.86787194  0.54561264  0.34823065     0.93300
O462        O  0.85499719  0.52992662  0.35900515    -0.82800
O463        O  0.87043432  0.51084644  0.86908778    -0.82300
C464        C  0.88336470  0.55097820  0.00454119     0.97100
O465        O  0.89133957  0.54233495  0.99399780    -0.71400
O466        O  0.86785586  0.50769153  0.97862536    -0.75000
Al467      Al  0.88796458  0.52674914  0.95157322     1.49000
C468        C  0.85397990  0.49410312  0.96396758     0.92300
O469        O  0.83733102  0.52052754  0.92318225    -0.81200
O470        O  0.88312506  0.55947969  0.87410669    -0.74800
Al471      Al  0.85513832  0.51652247  0.89805687     1.90100
O472        O  0.85365601  0.55073466  0.92096109    -0.73800
O473        O  0.90518619  0.56803265  0.93385612    -0.73700
O474        O  0.87484607  0.55532872  0.98093155    -0.79300
O475        O  0.90993234  0.54486834  0.92768351    -0.77500
O476        O  0.87386620  0.53314559  0.92584330    -1.13700
O477        O  0.88753884  0.50979802  0.91462831    -0.72900
C478        C  0.88171416  0.50631438  0.88099371     0.97900
C479        C  0.83814632  0.53599844  0.92272064     0.94300
Al480      Al  0.87874752  0.55645336  0.92740569     1.55600
O481        O  0.84842401  0.49567691  0.93159709    -0.77500
C482        C  0.91610336  0.56201457  0.92859397     0.98400
C483        C  0.87180281  0.54919828  0.84912630     0.93300
O484        O  0.85830716  0.53348959  0.85800524    -0.82800
O485        O  0.87301661  0.37011556  0.22932239    -0.82300
C486        C  0.88232731  0.33933013  0.09532937     0.97100
O487        O  0.89053017  0.35623959  0.10422988    -0.71400
O488        O  0.86745608  0.36773936  0.11897843    -0.75000
Al489      Al  0.88788127  0.36948361  0.14535552     1.49000
C490        C  0.85455866  0.36879702  0.13470768     0.92300
O491        O  0.83766712  0.32716135  0.17904529    -0.81200
O492        O  0.88280208  0.33270114  0.22637613    -0.74800
Al493      Al  0.85630625  0.34886563  0.20239575     1.90100
O494        O  0.85256026  0.31190931  0.18081601    -0.73800
O495        O  0.90486664  0.34550297  0.16683245    -0.73700
O496        O  0.87405734  0.32697524  0.12023735    -0.79300
O497        O  0.90969432  0.37367537  0.16844224    -0.77500
O498        O  0.87404483  0.34964578  0.17352241    -1.13700
O499        O  0.88841733  0.38718106  0.18064827    -0.72900
C500        C  0.88396938  0.38569171  0.21520948     0.97900
C501        C  0.83751467  0.31203531  0.18000090     0.94300
Al502      Al  0.87817497  0.33075696  0.17343138     1.55600
O503        O  0.84997514  0.36313521  0.16846054    -0.77500
C504        C  0.91575812  0.36273051  0.17057773     0.98400
C505        C  0.87191281  0.33217488  0.25165545     0.93300
O506        O  0.85890935  0.33502060  0.24316124    -0.82800
O507        O  0.86807050  0.36786934  0.72068493    -0.82300
C508        C  0.87939163  0.33344887  0.59574793     0.97100
O509        O  0.88854496  0.35057837  0.60300873    -0.71400
O510        O  0.86662598  0.36409178  0.61080890    -0.75000
Al511      Al  0.88576446  0.36525984  0.64123301     1.49000
C512        C  0.85316063  0.36526957  0.62299774     0.92300
O513        O  0.83383881  0.32435998  0.67036876    -0.81200
O514        O  0.87712315  0.33017463  0.72785787    -0.74800
Al515      Al  0.85202366  0.34634221  0.69405451     1.90100
O516        O  0.84780729  0.30866719  0.68079368    -0.73800
O517        O  0.90028029  0.34026161  0.66964084    -0.73700
O518        O  0.87037871  0.32181430  0.62150502    -0.79300
O519        O  0.90676549  0.36897619  0.66812601    -0.77500
O520        O  0.87044019  0.34613114  0.66973162    -1.13700
O521        O  0.88615922  0.38392566  0.67363337    -0.72900
C522        C  0.88026527  0.38303127  0.70697887     0.97900
C523        C  0.83313511  0.30909649  0.67513816     0.94300
Al524      Al  0.87361378  0.32673243  0.67445481     1.55600
O525        O  0.84731751  0.36014121  0.65635029    -0.77500
C526        C  0.91187816  0.35734255  0.67246910     0.98400
C527        C  0.86601909  0.33133839  0.75032162     0.93300
O528        O  0.85300458  0.33330232  0.73774925    -0.82800
C529        C  0.88244411  0.33446517  0.05506598    -0.03700
C530        C  0.87104550  0.31637205  0.04164669    -0.06300
C531        C  0.87003847  0.31264883  0.00271963    -0.21400
C532        C  0.88025408  0.32697352  0.97673224     0.24400
C533        C  0.89244757  0.34477263  0.99046137    -0.18900
C534        C  0.89348908  0.34847142  0.02906747    -0.08900
C535        C  0.87756725  0.32348889  0.93537715    -0.19200
C536        C  0.87750501  0.33614176  0.91192997    -0.24000
C537        C  0.87388602  0.33344892  0.87076195     0.26400
C538        C  0.86522753  0.34211765  0.85350716    -0.20700
C539        C  0.86227610  0.34085177  0.81458523    -0.10400
C540        C  0.86836729  0.33128981  0.79174716    -0.10900
C541        C  0.87724848  0.32272452  0.80880267    -0.03800
C542        C  0.87980929  0.32361246  0.84818424    -0.19000
H543        H  0.86247992  0.30526306  0.06102644     0.10100
H544        H  0.86071138  0.29876609  0.99277604     0.10200
H545        H  0.90100484  0.35596987  0.97126057     0.09900
H546        H  0.90270049  0.36248861  0.03844068     0.11000
H547        H  0.87418463  0.31002321  0.92464660     0.11100
H548        H  0.87891263  0.34871331  0.92388099     0.13000
H549        H  0.86074223  0.34994402  0.87024730     0.09500
H550        H  0.85565495  0.34784906  0.80217616     0.11600
H551        H  0.88220125  0.31540787  0.79173021     0.08200
H552        H  0.88689338  0.31713358  0.86073485     0.10900
C553        C  0.87436656  0.32839562  0.29161272    -0.03700
C554        C  0.89068020  0.32908254  0.30344567    -0.06300
C555        C  0.89351785  0.32695911  0.34174125    -0.21400
C556        C  0.88001326  0.32378930  0.36893216     0.24400
C557        C  0.86349871  0.32266331  0.35692809    -0.18900
C558        C  0.86074024  0.32496459  0.31874698    -0.08900
C559        C  0.88433533  0.32376030  0.40976904    -0.19200
C560        C  0.87131076  0.31576958  0.43689955    -0.24000
C561        C  0.87530125  0.31894893  0.47812588     0.26400
C562        C  0.86226618  0.30657921  0.50430453    -0.20700
C563        C  0.86414890  0.31066717  0.54305044    -0.10400
C564        C  0.87895382  0.32740422  0.55623336    -0.10900
C565        C  0.89242566  0.33937119  0.53029049    -0.03800
C566        C  0.89066592  0.33520582  0.49172810    -0.19000
H567        H  0.90149453  0.33181841  0.28328307     0.10100
H568        H  0.90645426  0.32812494  0.35026395     0.10200
H569        H  0.85298862  0.32081606  0.37706710     0.09900
H570        H  0.84805047  0.32442794  0.31059219     0.11000
H571        H  0.89880382  0.33099423  0.41765096     0.11100
H572        H  0.85697853  0.30702807  0.42874080     0.13000
H573        H  0.85023792  0.29402788  0.49459088     0.09500
H574        H  0.85350173  0.30123033  0.56236361     0.11600
H575        H  0.90400659  0.35236867  0.53963079     0.08200
H576        H  0.90080887  0.34532957  0.47259115     0.10900
C577        C  0.84563377  0.47583141  0.98335525    -0.03700
C578        C  0.83598904  0.45938130  0.96251121    -0.06300
C579        C  0.83200130  0.44239999  0.97844293    -0.21400
C580        C  0.83722014  0.44137969  0.01576797     0.24400
C581        C  0.84582844  0.45769569  0.03737936    -0.18900
C582        C  0.85001087  0.47468421  0.02132045    -0.08900
C583        C  0.83567151  0.42376988  0.02958736    -0.19200
C584        C  0.83527967  0.41945050  0.06656520    -0.24000
C585        C  0.83724571  0.40372304  0.08084535     0.26400
C586        C  0.83170749  0.39734490  0.11807096    -0.20700
C587        C  0.83604333  0.38480782  0.13473276    -0.10400
C588        C  0.84628619  0.37853036  0.11469247    -0.10900
C589        C  0.85097711  0.38413977  0.07675527    -0.03800
C590        C  0.84651515  0.39655447  0.06000731    -0.19000
H591        H  0.83262186  0.45977781  0.93307569     0.10100
H592        H  0.82546793  0.43011243  0.96102052     0.10200
H593        H  0.85045913  0.45765678  0.06591041     0.09900
H594        H  0.85757182  0.48709637  0.03808882     0.11000
H595        H  0.83530276  0.41427466  0.00829286     0.11100
H596        H  0.83393108  0.42808532  0.08768278     0.13000
H597        H  0.82463538  0.40266638  0.13489585     0.09500
H598        H  0.83233170  0.38091554  0.16405446     0.11600
H599        H  0.85896848  0.37968023  0.06052719     0.08200
H600        H  0.85138754  0.40133789  0.03157240     0.10900
C601        C  0.88761132  0.49629967  0.85555625    -0.03700
C602        C  0.88165470  0.49307074  0.81775010    -0.06300
C603        C  0.88586902  0.48232825  0.79437541    -0.21400
C604        C  0.89594749  0.47442816  0.80832850     0.24400
C605        C  0.90273490  0.47840827  0.84559749    -0.18900
C606        C  0.89855263  0.48921814  0.86901628    -0.08900
C607        C  0.89808196  0.46131015  0.78380280    -0.19200
C608        C  0.89932920  0.44705704  0.79783661    -0.24000
C609        C  0.89663856  0.43132231  0.77419694     0.26400
C610        C  0.88878565  0.41383061  0.79116614    -0.20700
C611        C  0.88394451  0.39821713  0.76935820    -0.10400
C612        C  0.88712435  0.39982240  0.73013419    -0.10900
C613        C  0.89598609  0.41743357  0.71337066    -0.03800
C614        C  0.90069570  0.43309144  0.73521361    -0.19000
H615        H  0.87335605  0.49849228  0.80640393     0.10100
H616        H  0.88061538  0.47959346  0.76569461     0.10200
H617        H  0.91108259  0.47305549  0.85690887     0.09900
H618        H  0.90353184  0.49167225  0.89789240     0.11000
H619        H  0.89593521  0.46192165  0.75367182     0.11100
H620        H  0.89967547  0.44546151  0.82825878     0.13000
H621        H  0.88568403  0.41213101  0.82117529     0.09500
H622        H  0.87735843  0.38481984  0.78313114     0.11600
H623        H  0.89872591  0.41904145  0.68323279     0.08200
H624        H  0.90727295  0.44646303  0.72143962     0.10900
C625        C  0.87963260  0.55634942  0.54354359    -0.03700
C626        C  0.86548362  0.55936375  0.55604534    -0.06300
C627        C  0.86333333  0.56156377  0.59464094    -0.21400
C628        C  0.87550249  0.56120943  0.62141664     0.24400
C629        C  0.89004553  0.55882046  0.60872005    -0.18900
C630        C  0.89203051  0.55635289  0.57023978    -0.08900
C631        C  0.87150848  0.56126953  0.66241871    -0.19200
C632        C  0.88451254  0.56684161  0.68955733    -0.24000
C633        C  0.88010806  0.56367821  0.73067701     0.26400
C634        C  0.89365383  0.57466601  0.75731279    -0.20700
C635        C  0.89072824  0.57053194  0.79606613    -0.10400
C636        C  0.87427086  0.55512034  0.80888030    -0.10900
C637        C  0.86053634  0.54445033  0.78226890    -0.03800
C638        C  0.86339415  0.54865595  0.74369869    -0.19000
H639        H  0.85561050  0.55925112  0.53618271     0.10100
H640        H  0.85189125  0.56315615  0.60371280     0.10200
H641        H  0.89938877  0.55794442  0.62853992     0.09900
H642        H  0.90302181  0.55397816  0.56147924     0.11000
H643        H  0.85725025  0.55619762  0.67040865     0.11100
H644        H  0.89896023  0.57359360  0.68146446     0.13000
H645        H  0.90671537  0.58621665  0.74801567     0.09500
H646        H  0.90161182  0.57898067  0.81580876     0.11600
H647        H  0.84771716  0.53244542  0.79111780     0.08200
H648        H  0.85281556  0.53952921  0.72412009     0.10900
C649        C  0.88433384  0.55585829  0.04506132    -0.03700
C650        C  0.89815161  0.55611551  0.06788268    -0.06300
C651        C  0.89855803  0.55919486  0.10672227    -0.21400
C652        C  0.88503282  0.56183694  0.12399863     0.24400
C653        C  0.87152629  0.56227723  0.10100502    -0.18900
C654        C  0.87123289  0.55935871  0.06182891    -0.08900
C655        C  0.88542677  0.56349733  0.16601964    -0.19200
C656        C  0.87059041  0.55968987  0.18729029    -0.24000
C657        C  0.87030387  0.55781783  0.22925508     0.26400
C658        C  0.85343807  0.54578605  0.24695865    -0.20700
C659        C  0.85266737  0.54215980  0.28571462    -0.10400
C660        C  0.86871337  0.55080105  0.30791002    -0.10900
C661        C  0.88548577  0.56360798  0.29073134    -0.03800
C662        C  0.88631226  0.56705378  0.25170856    -0.19000
H663        H  0.90858576  0.55368614  0.05575444     0.10100
H664        H  0.90922209  0.55896134  0.12353695     0.10200
H665        H  0.86115404  0.56479165  0.11301128     0.09900
H666        H  0.86048236  0.55932960  0.04486048     0.11000
H667        H  0.89796664  0.56598931  0.18007323     0.11100
H668        H  0.85754793  0.55563070  0.17353808     0.13000
H669        H  0.84088093  0.53863622  0.23049244     0.09500
H670        H  0.83949960  0.53238380  0.29827844     0.11600
H671        H  0.89804354  0.57052185  0.30724187     0.08200
H672        H  0.89948311  0.57685142  0.23929120     0.10900
C673        C  0.84607232  0.47646882  0.49062219    -0.03700
C674        C  0.84970868  0.47690197  0.52954102    -0.06300
C675        C  0.84590004  0.46078444  0.54892467    -0.21400
C676        C  0.83861327  0.44383223  0.52989904     0.24400
C677        C  0.83409373  0.44318538  0.49129448    -0.18900
C678        C  0.83776720  0.45934546  0.47192151    -0.08900
C679        C  0.83659266  0.42750846  0.55130412    -0.19200
C680        C  0.83598724  0.41266089  0.53498156    -0.24000
C681        C  0.83753071  0.39826668  0.55693603     0.26400
C682        C  0.83185179  0.39403356  0.59496261    -0.20700
C683        C  0.83573325  0.38215081  0.61581125    -0.10400
C684        C  0.84544032  0.37434389  0.59917748    -0.10900
C685        C  0.84990162  0.37753921  0.56051269    -0.03800
C686        C  0.84583104  0.38922404  0.53959427    -0.19000
H687        H  0.85613368  0.48986657  0.54479934     0.10100
H688        H  0.84937024  0.46172900  0.57866673     0.10200
H689        H  0.82798189  0.43034863  0.47575904     0.09900
H690        H  0.83492732  0.45857538  0.44187998     0.11000
H691        H  0.83759518  0.42873463  0.58190145     0.11100
H692        H  0.83661898  0.41207012  0.50439296     0.13000
H693        H  0.82481540  0.40019686  0.60895698     0.09500
H694        H  0.83202925  0.37989924  0.64551529     0.11600
H695        H  0.85725732  0.37162533  0.54678315     0.08200
H696        H  0.85009426  0.39198147  0.51022568     0.10900
C697        C  0.89093393  0.40229423  0.23909112    -0.03700
C698        C  0.90151346  0.42006857  0.22343223    -0.06300
C699        C  0.90633688  0.43569942  0.24541867    -0.21400
C700        C  0.90062618  0.43374966  0.28342371     0.24400
C701        C  0.89107440  0.41605355  0.29956949    -0.18900
C702        C  0.88618785  0.40046896  0.27762766    -0.08900
C703        C  0.90317957  0.44955697  0.30654170    -0.19200
C704        C  0.90312135  0.46426958  0.29147044    -0.24000
C705        C  0.89996387  0.47701010  0.31494382     0.26400
C706        C  0.88963398  0.48434102  0.29957749    -0.20700
C707        C  0.88393572  0.49410250  0.32234721    -0.10400
C708        C  0.88868497  0.49691939  0.36087272    -0.10900
C709        C  0.90004981  0.49062283  0.37567739    -0.03800
C710        C  0.90567450  0.48076623  0.35290319    -0.19000
H711        H  0.90559320  0.42188902  0.19393401     0.10100
H712        H  0.91423106  0.44920906  0.23246289     0.10200
H713        H  0.88665429  0.41421991  0.32886525     0.09900
H714        H  0.87821843  0.38696104  0.29064394     0.11000
H715        H  0.90209615  0.44760679  0.33702500     0.11100
H716        H  0.90230364  0.46530523  0.26097681     0.13000
H717        H  0.88521427  0.48175960  0.27031807     0.09500
H718        H  0.87542936  0.49905070  0.30995946     0.11600
H719        H  0.90418339  0.49286762  0.40510527     0.08200
H720        H  0.91416515  0.47580857  0.36525089     0.10900
C721        C  0.06650879  0.63339343  0.92505331    -0.03700
C722        C  0.05626118  0.61589763  0.94200194    -0.06300
C723        C  0.03716197  0.60739694  0.94563767    -0.21400
C724        C  0.02764826  0.61603315  0.93230555     0.24400
C725        C  0.03794454  0.63395721  0.91668154    -0.18900
C726        C  0.05725812  0.64260376  0.91333121    -0.08900
C727        C  0.00706967  0.60500900  0.93307952    -0.19200
C728        C  0.99555171  0.61130692  0.92463108    -0.24000
C729        C  0.97511669  0.59875431  0.92397324     0.26400
C730        C  0.96341197  0.60559615  0.93325881    -0.20700
C731        C  0.94418874  0.59381610  0.93395994    -0.10400
C732        C  0.93628903  0.57496109  0.92507947    -0.10900
C733        C  0.94799732  0.56830644  0.91445300    -0.03800
C734        C  0.96712955  0.58004520  0.91368144    -0.19000
H735        H  0.06299600  0.60851781  0.95173108     0.10100
H736        H  0.02971247  0.59368421  0.95798777     0.10200
H737        H  0.03120566  0.64109621  0.90580908     0.09900
H738        H  0.06483171  0.65608835  0.90007364     0.11000
H739        H  0.00101734  0.59059537  0.94127595     0.11100
H740        H  0.00096754  0.62590348  0.91934003     0.13000
H741        H  0.96917356  0.61998813  0.94082440     0.09500
H742        H  0.93554459  0.59937843  0.94223839     0.11600
H743        H  0.94237243  0.55392817  0.90693140     0.08200
H744        H  0.97561593  0.57440677  0.90480809     0.10900
C745        C  0.93393526  0.57485016  0.42281710    -0.03700
C746        C  0.94160239  0.59413266  0.42432297    -0.06300
C747        C  0.96082779  0.60600678  0.42278511    -0.21400
C748        C  0.97271711  0.59882219  0.42023854     0.24400
C749        C  0.96494758  0.57957334  0.41724642    -0.18900
C750        C  0.94586709  0.56778357  0.41863929    -0.08900
C751        C  0.99314242  0.61144106  0.41996624    -0.19200
C752        C  0.00455347  0.60624379  0.43525736    -0.24000
C753        C  0.02512010  0.61659310  0.43284664     0.26400
C754        C  0.03422023  0.60729264  0.44468559    -0.20700
C755        C  0.05328726  0.61542075  0.44107418    -0.10400
C756        C  0.06397818  0.63326339  0.42583234    -0.10900
C757        C  0.05509695  0.64300477  0.41515554    -0.03800
C758        C  0.03580179  0.63472318  0.41845023    -0.19000
H759        H  0.93278512  0.60001399  0.42738621     0.10100
H760        H  0.96644249  0.62079337  0.42452044     0.10200
H761        H  0.97358868  0.57353181  0.41360291     0.09900
H762        H  0.94047708  0.55303178  0.41685821     0.11000
H763        H  0.99860946  0.62496487  0.40708254     0.11100
H764        H  0.99834939  0.59295374  0.44961252     0.13000
H765        H  0.02647227  0.59338687  0.45604799     0.09500
H766        H  0.05965247  0.60755411  0.44987166     0.11600
H767        H  0.06298457  0.65678311  0.40331943     0.08200
H768        H  0.02941725  0.64250214  0.40938788     0.10900
C769        C  0.12673492  0.67539973  0.53745862    -0.03700
C770        C  0.14024692  0.67787503  0.56400125    -0.06300
C771        C  0.13752286  0.67930260  0.60250853    -0.21400
C772        C  0.12118359  0.67827684  0.61538325     0.24400
C773        C  0.10783304  0.67616966  0.58884679    -0.18900
C774        C  0.11062448  0.67488480  0.55019069    -0.08900
C775        C  0.11686636  0.67720229  0.65632638    -0.19200
C776        C  0.12994063  0.68461782  0.68324321    -0.24000
C777        C  0.12583012  0.68027334  0.72401189     0.26400
C778        C  0.13759335  0.69294131  0.75114040    -0.20700
C779        C  0.13524086  0.68826796  0.78959687    -0.10400
C780        C  0.12131022  0.67065694  0.80146849    -0.10900
C781        C  0.10932786  0.65812499  0.77435667    -0.03800
C782        C  0.11152164  0.66287950  0.73606422    -0.19000
H783        H  0.15275424  0.67818908  0.55514959     0.10100
H784        H  0.14786424  0.68032351  0.62217462     0.10200
H785        H  0.09503802  0.67511544  0.59814506     0.09900
H786        H  0.09990903  0.67286368  0.53044866     0.11000
H787        H  0.10241716  0.66955399  0.66454046     0.11100
H788        H  0.14424441  0.69380522  0.67522458     0.13000
H789        H  0.14884849  0.70633372  0.74246530     0.09500
H790        H  0.14477505  0.69815621  0.80984181     0.11600
H791        H  0.09852112  0.64442370  0.78262685     0.08200
H792        H  0.10254177  0.65256428  0.71586275     0.10900
C793        C  0.12763555  0.67144885  0.03690425    -0.03700
C794        C  0.11058204  0.66868753  0.04969859    -0.06300
C795        C  0.10719204  0.66871111  0.08839416    -0.21400
C796        C  0.12087626  0.67185160  0.11493040     0.24400
C797        C  0.13816560  0.67521578  0.10204870    -0.18900
C798        C  0.14148608  0.67499328  0.06340296    -0.08900
C799        C  0.11618580  0.66987972  0.15572443    -0.19200
C800        C  0.12888361  0.67832176  0.18297152    -0.24000
C801        C  0.12451254  0.67465130  0.22378867     0.26400
C802        C  0.13566622  0.68821739  0.25011943    -0.20700
C803        C  0.13289274  0.68461178  0.28892043    -0.10400
C804        C  0.11910714  0.66721372  0.30204966    -0.10900
C805        C  0.10775915  0.65371426  0.27569468    -0.03800
C806        C  0.11040815  0.65738219  0.23695197    -0.19000
H807        H  0.09960791  0.66578924  0.02990514     0.10100
H808        H  0.09372637  0.66593096  0.09768212     0.10200
H809        H  0.14887916  0.67719274  0.12170718     0.09900
H810        H  0.15474490  0.67711464  0.05432601     0.11000
H811        H  0.10175067  0.66124065  0.16342733     0.11100
H812        H  0.14299385  0.68841068  0.17527245     0.13000
H813        H  0.14673605  0.70154062  0.24061348     0.09500
H814        H  0.14198107  0.69520834  0.30858292     0.11600
H815        H  0.09711391  0.64012739  0.28498875     0.08200
H816        H  0.10189962  0.64640013  0.21748279     0.10900
C817        C  0.93171828  0.36403567  0.67939169    -0.03700
C818        C  0.93887946  0.35209519  0.67717787    -0.06300
C819        C  0.95793842  0.35904027  0.68042015    -0.21400
C820        C  0.97019788  0.37803671  0.68559948     0.24400
C821        C  0.96287119  0.38977150  0.68982358    -0.18900
C822        C  0.94392390  0.38287717  0.68654813    -0.08900
C823        C  0.99051628  0.38537724  0.68646118    -0.19200
C824        C  0.00267764  0.40253767  0.67389893    -0.24000
C825        C  0.02321264  0.41162014  0.67511674     0.26400
C826        C  0.03335462  0.43059237  0.66703050    -0.20700
C827        C  0.05253635  0.44036213  0.66919062    -0.10400
C828        C  0.06231542  0.43147472  0.67933536    -0.10900
C829        C  0.05234553  0.41230635  0.68607497    -0.03800
C830        C  0.03292546  0.40243465  0.68412531    -0.19000
H831        H  0.92982817  0.33748899  0.67193785     0.10100
H832        H  0.96317348  0.34964660  0.67771829     0.10200
H833        H  0.97173781  0.40434194  0.69562144     0.09900
H834        H  0.93885810  0.39241593  0.68915922     0.11000
H835        H  0.99529455  0.37631862  0.69664196     0.11100
H836        H  0.99725266  0.41083468  0.66228999     0.13000
H837        H  0.02637576  0.43806888  0.65970611     0.09500
H838        H  0.05972051  0.45507511  0.66342289     0.11600
H839        H  0.05950015  0.40507141  0.69386145     0.08200
H840        H  0.02570182  0.38776639  0.68991828     0.10900
C841        C  0.11029837  0.60334602  0.49320184    -0.03700
C842        C  0.09865635  0.58520974  0.48062052    -0.06300
C843        C  0.09372004  0.57029795  0.50496265    -0.21400
C844        C  0.10050769  0.57329419  0.54222993     0.24400
C845        C  0.11111981  0.59144382  0.55548785    -0.18900
C846        C  0.11603617  0.60635296  0.53118659    -0.08900
C847        C  0.09808695  0.55796633  0.56697548    -0.19200
C848        C  0.09688359  0.54254452  0.55274781    -0.24000
C849        C  0.09970432  0.52958383  0.57612818     0.26400
C850        C  0.10864182  0.52107603  0.55951028    -0.20700
C851        C  0.11359408  0.51043882  0.58130555    -0.10400
C852        C  0.10950403  0.50792404  0.62015765    -0.10900
C853        C  0.09956517  0.51553440  0.63643683    -0.03800
C854        C  0.09471655  0.52634137  0.61457427    -0.19000
H855        H  0.09375905  0.58250599  0.45169646     0.10100
H856        H  0.08489689  0.55647384  0.49426673     0.10200
H857        H  0.11633700  0.59409373  0.58420075     0.09900
H858        H  0.12478511  0.62021927  0.54188870     0.11000
H859        H  0.10016642  0.56062244  0.59715274     0.11100
H860        H  0.09674523  0.54078611  0.52231611     0.13000
H861        H  0.11249529  0.52329265  0.52987346     0.09500
H862        H  0.12103436  0.50455010  0.56782429     0.11600
H863        H  0.09599356  0.51356874  0.66621249     0.08200
H864        H  0.08733540  0.53232645  0.62785342     0.10900
C865        C  0.15537710  0.52612473  0.74496572    -0.03700
C866        C  0.15297337  0.52605917  0.78433710    -0.06300
C867        C  0.15863986  0.54256609  0.80384484    -0.21400
C868        C  0.16652001  0.55951429  0.78445368     0.24400
C869        C  0.17011718  0.55975984  0.74542959    -0.18900
C870        C  0.16462102  0.54321530  0.72592938    -0.08900
C871        C  0.16940059  0.57617260  0.80556240    -0.19200
C872        C  0.16847327  0.59021028  0.78902859    -0.24000
C873        C  0.16593958  0.60404732  0.81065468     0.26400
C874        C  0.15650886  0.61186871  0.79302192    -0.20700
C875        C  0.15133233  0.62277800  0.81347448    -0.10400
C876        C  0.15568797  0.62638852  0.85207285    -0.10900
C877        C  0.16638839  0.61978313  0.86909587    -0.03800
C878        C  0.17146132  0.60869351  0.84862024    -0.19000
H879        H  0.14598877  0.51314511  0.79988110     0.10100
H880        H  0.15589197  0.54195197  0.83392935     0.10200
H881        H  0.17670969  0.57260016  0.72967383     0.09900
H882        H  0.16670101  0.54373445  0.69559425     0.11000
H883        H  0.16951355  0.57545120  0.83620977     0.11100
H884        H  0.16676599  0.59006508  0.75857763     0.13000
H885        H  0.15224908  0.60873030  0.76375450     0.09500
H886        H  0.14321379  0.62774880  0.79937797     0.11600
H887        H  0.17003207  0.62238483  0.89874556     0.08200
H888        H  0.17927100  0.60343978  0.86287931     0.10900
C889        C  0.06552368  0.42739009  0.18028603    -0.03700
C890        C  0.05758351  0.40856277  0.18960858    -0.06300
C891        C  0.03836442  0.39674080  0.18806606    -0.21400
C892        C  0.02679818  0.40357500  0.17747540     0.24400
C893        C  0.03488696  0.42220539  0.16642428    -0.18900
C894        C  0.05395259  0.43395159  0.16803466    -0.08900
C895        C  0.00636433  0.39124361  0.17778958    -0.19200
C896        C  0.99518028  0.39786246  0.18674932    -0.24000
C897        C  0.97467405  0.38761228  0.18413387     0.26400
C898        C  0.96596169  0.39808894  0.18640420    -0.20700
C899        C  0.94693493  0.38982475  0.18257729    -0.10400
C900        C  0.93587952  0.37070440  0.17654767    -0.10900
C901        C  0.94441173  0.35995558  0.17525090    -0.03800
C902        C  0.96369115  0.36833883  0.17894238    -0.19000
H903        H  0.06616300  0.40309402  0.19897682     0.10100
H904        H  0.03248760  0.38237980  0.19614309     0.10200
H905        H  0.02649728  0.42778520  0.15646281     0.09900
H906        H  0.05963304  0.44828835  0.15990920     0.11000
H907        H  0.00070894  0.37679839  0.17074868     0.11100
H908        H  0.00155236  0.41222728  0.19537568     0.13000
H909        H  0.97397120  0.41291250  0.19050225     0.09500
H910        H  0.94091747  0.39858884  0.18397528     0.11600
H911        H  0.93624799  0.34517485  0.17084460     0.08200
H912        H  0.96982794  0.35971089  0.17762807     0.10900
C913        C  0.11041850  0.59990484  0.98191402    -0.03700
C914        C  0.11395571  0.60169065  0.02098596    -0.06300
C915        C  0.10825279  0.58608646  0.04365020    -0.21400
C916        C  0.09910470  0.56835756  0.02777245     0.24400
C917        C  0.09456570  0.56645325  0.98904983    -0.18900
C918        C  0.10017942  0.58212000  0.96633091    -0.08900
C919        C  0.09588236  0.55254244  0.05212165    -0.19200
C920        C  0.09578372  0.53751360  0.03847039    -0.24000
C921        C  0.09847291  0.52466282  0.06299790     0.26400
C922        C  0.09364473  0.52200362  0.10161704    -0.20700
C923        C  0.09885693  0.51182403  0.12466104    -0.10400
C924        C  0.10892155  0.50409606  0.10952029    -0.10900
C925        C  0.11270956  0.50582163  0.07051442    -0.03800
C926        C  0.10744362  0.51590566  0.04751705    -0.19000
H927        H  0.12152462  0.61519892  0.03399296     0.10100
H928        H  0.11174405  0.58793540  0.07344230     0.10200
H929        H  0.08697022  0.55295806  0.97609301     0.09900
H930        H  0.09698275  0.58032204  0.93641281     0.11000
H931        H  0.09660503  0.55474474  0.08245522     0.11100
H932        H  0.09673096  0.53614239  0.00815919     0.13000
H933        H  0.08616098  0.52801390  0.11429021     0.09500
H934        H  0.09550547  0.51049685  0.15453101     0.11600
H935        H  0.12022433  0.49981653  0.05786944     0.08200
H936        H  0.11116573  0.51757886  0.01781519     0.10900
C937        C  0.15356441  0.62478413  0.36208470    -0.03700
C938        C  0.16434107  0.61900090  0.38164832    -0.06300
C939        C  0.16911330  0.60689516  0.36464526    -0.21400
C940        C  0.16348067  0.60050665  0.32756082     0.24400
C941        C  0.15374375  0.60729190  0.30712235    -0.18900
C942        C  0.14884392  0.61926118  0.32422653    -0.08900
C943        C  0.16574150  0.58502698  0.31320010    -0.19200
C944        C  0.16478531  0.58047681  0.27631483    -0.24000
C945        C  0.16312479  0.56283000  0.26288854     0.26400
C946        C  0.16776489  0.56152798  0.22525506    -0.20700
C947        C  0.16370447  0.54446077  0.20996843    -0.10400
C948        C  0.15460034  0.52823145  0.23185077    -0.10900
C949        C  0.15072941  0.52966746  0.27001273    -0.03800
C950        C  0.15494145  0.54673165  0.28537656    -0.19000
H951        H  0.16811028  0.62289068  0.41090348     0.10100
H952        H  0.17654907  0.60186190  0.38112913     0.10200
H953        H  0.14880836  0.60250342  0.27880253     0.09900
H954        H  0.14051180  0.62343562  0.30836552     0.11000
H955        H  0.16761220  0.57665982  0.33421848     0.11100
H956        H  0.16465575  0.58971183  0.25492260     0.13000
H957        H  0.17392754  0.57364889  0.20718540     0.09500
H958        H  0.16667660  0.54382204  0.18036526     0.11600
H959        H  0.14356915  0.51742071  0.28756804     0.08200
H960        H  0.15069909  0.54698780  0.31416655     0.10900
C961        C  0.11641918  0.44481504  0.79833684    -0.03700
C962        C  0.12954650  0.44019354  0.81014503    -0.06300
C963        C  0.13136069  0.43732108  0.84854748    -0.21400
C964        C  0.11991372  0.43871349  0.87573767     0.24400
C965        C  0.10621793  0.44252249  0.86357484    -0.18900
C966        C  0.10451201  0.44552655  0.82532058    -0.08900
C967        C  0.12400218  0.43830069  0.91652339    -0.19200
C968        C  0.11180885  0.43519450  0.94440280    -0.24000
C969        C  0.11690114  0.43833860  0.98506800     0.26400
C970        C  0.10293393  0.42984702  0.01246379    -0.20700
C971        C  0.10682150  0.43417332  0.05079074    -0.10400
C972        C  0.12470791  0.44738524  0.06234081    -0.10900
C973        C  0.13879121  0.45557256  0.03511384    -0.03800
C974        C  0.13496687  0.45108099  0.99688092    -0.19000
H975        H  0.13896223  0.43963105  0.78995836     0.10100
H976        H  0.14210757  0.43455333  0.85717681     0.10200
H977        H  0.09741304  0.44420273  0.88351940     0.09900
H978        H  0.09423250  0.44902616  0.81701583     0.11000
H979        H  0.13777199  0.44119445  0.92370243     0.11100
H980        H  0.09754117  0.43051484  0.93737736     0.13000
H981        H  0.08887652  0.42017131  0.00407886     0.09500
H982        H  0.09566230  0.42781031  0.07117107     0.11600
H983        H  0.15269010  0.46585836  0.04327292     0.08200
H984        H  0.14601799  0.45833638  0.97664314     0.10900
C985        C  0.12155122  0.44931576  0.29835015    -0.03700
C986        C  0.13438375  0.44438512  0.31081900    -0.06300
C987        C  0.13630133  0.44204746  0.34947746    -0.21400
C988        C  0.12518187  0.44421109  0.37624866     0.24400
C989        C  0.11206996  0.44873609  0.36363346    -0.18900
C990        C  0.11030233  0.45127293  0.32516328    -0.08900
C991        C  0.12869748  0.44357055  0.41722062    -0.19200
C992        C  0.11549707  0.43887159  0.44368355    -0.24000
C993        C  0.11933379  0.44177750  0.48486101     0.26400
C994        C  0.10486261  0.43180441  0.51060634    -0.20700
C995        C  0.10728468  0.43593259  0.54924989    -0.10400
C996        C  0.12416213  0.45036904  0.56277090    -0.10900
C997        C  0.13880272  0.46002187  0.53716608    -0.03800
C998        C  0.13644967  0.45576529  0.49864687    -0.19000
H999        H  0.14332188  0.44288743  0.29082698     0.10100
H1000       H  0.14665769  0.43879723  0.35855567     0.10200
H1001       H  0.10367160  0.45110498  0.38349172     0.09900
H1002       H  0.10033875  0.45513829  0.31649546     0.11000
H1003       H  0.14263100  0.44750915  0.42568892     0.11100
H1004       H  0.10126125  0.43318613  0.43484044     0.13000
H1005       H  0.09149904  0.42109520  0.50064582     0.09500
H1006       H  0.09574323  0.42828719  0.56831301     0.11600
H1007       H  0.15199028  0.47119816  0.54677668     0.08200
H1008       H  0.14778910  0.46409412  0.47965171     0.10900
C1009       C  0.29049647  0.47784247  0.58938136    -0.03700
C1010       C  0.27370761  0.46130381  0.59548855    -0.06300
C1011       C  0.25747877  0.46155120  0.60322847    -0.21400
C1012       C  0.25763397  0.47839884  0.60524441     0.24400
C1013       C  0.27417175  0.49482497  0.59692207    -0.18900
C1014       C  0.29043802  0.49458518  0.58929199    -0.08900
C1015       C  0.24097189  0.47944679  0.61601945    -0.19200
C1016       C  0.22676785  0.46631350  0.63655234    -0.24000
C1017       C  0.21021249  0.46735687  0.64813035     0.26400
C1018       C  0.19380327  0.45089469  0.65695433    -0.20700
C1019       C  0.17775656  0.45111280  0.66688294    -0.10400
C1020       C  0.17781426  0.46787512  0.66885776    -0.10900
C1021       C  0.19445308  0.48443777  0.66164367    -0.03800
C1022       C  0.21044993  0.48420450  0.65136768    -0.19000
H1023       H  0.27319063  0.44813496  0.59547789     0.10100
H1024       H  0.24492652  0.44849805  0.60781680     0.10200
H1025       H  0.27466623  0.50798338  0.59763878     0.09900
H1026       H  0.30309794  0.50758514  0.58465425     0.11000
H1027       H  0.24077859  0.49178797  0.60753605     0.11100
H1028       H  0.22699010  0.45400154  0.64510185     0.13000
H1029       H  0.19326144  0.43773273  0.65520325     0.09500
H1030       H  0.16519176  0.43810883  0.67214295     0.11600
H1031       H  0.19500429  0.49761458  0.66281409     0.08200
H1032       H  0.22291983  0.49725436  0.64612923     0.10900
C1033       C  0.18171429  0.47014909  0.17013761    -0.03700
C1034       C  0.19843348  0.48686121  0.16484673    -0.06300
C1035       C  0.21479547  0.48687358  0.15666149    -0.21400
C1036       C  0.21478975  0.47010748  0.15348396     0.24400
C1037       C  0.19827271  0.45352545  0.16087838    -0.18900
C1038       C  0.18195393  0.45351752  0.16895734    -0.08900
C1039       C  0.23141226  0.46903177  0.14231491    -0.19200
C1040       C  0.24673040  0.48293394  0.12601542    -0.24000
C1041       C  0.26294558  0.48125848  0.11457241     0.26400
C1042       C  0.28048278  0.49722472  0.11374497    -0.20700
C1043       C  0.29616134  0.49618549  0.10467636    -0.10400
C1044       C  0.29470376  0.47912722  0.09590656    -0.10900
C1045       C  0.27705108  0.46324459  0.09502079    -0.03800
C1046       C  0.26133123  0.46429544  0.10407641    -0.19000
H1047       H  0.19877369  0.49994210  0.16576783     0.10100
H1048       H  0.22725761  0.50003925  0.15254023     0.10200
H1049       H  0.19783658  0.44041493  0.15921196     0.09900
H1050       H  0.16936845  0.44038056  0.17300758     0.11000
H1051       H  0.23073560  0.45591970  0.14711021     0.11100
H1052       H  0.24785195  0.49625313  0.12161717     0.13000
H1053       H  0.28213564  0.51049769  0.12124447     0.09500
H1054       H  0.30953039  0.50870460  0.10588874     0.11600
H1055       H  0.27542288  0.44991814  0.08818168     0.08200
H1056       H  0.24798344  0.45179361  0.10292535     0.10900
C1057       C  0.33517748  0.45804184  0.96700244    -0.03700
C1058       C  0.35017638  0.46571745  0.94164241    -0.06300
C1059       C  0.34736454  0.46605242  0.90290296    -0.21400
C1060       C  0.32951716  0.45828613  0.88830746     0.24400
C1061       C  0.31433496  0.44973161  0.91306232    -0.18900
C1062       C  0.31715720  0.44975357  0.95230343    -0.08900
C1063       C  0.32750276  0.46135104  0.84785421    -0.19200
C1064       C  0.31792129  0.44758442  0.82318343    -0.24000
C1065       C  0.31876491  0.45131976  0.78181358     0.26400
C1066       C  0.31919555  0.43883814  0.75600380    -0.20700
C1067       C  0.32177208  0.44303009  0.71723246    -0.10400
C1068       C  0.32376471  0.45972183  0.70352723    -0.10900
C1069       C  0.32245249  0.47176801  0.72926642    -0.03800
C1070       C  0.31995248  0.46761235  0.76789233    -0.19000
H1071       H  0.36424829  0.47225282  0.95180598     0.10100
H1072       H  0.35922438  0.47278692  0.88424936     0.10200
H1073       H  0.30042892  0.44387732  0.90225326     0.09900
H1074       H  0.30534207  0.44378533  0.97111609     0.11000
H1075       H  0.33615666  0.47534515  0.83730507     0.11100
H1076       H  0.31100986  0.43335540  0.83308536     0.13000
H1077       H  0.31820316  0.42614441  0.76600961     0.09500
H1078       H  0.32262643  0.43340583  0.69813258     0.11600
H1079       H  0.32366265  0.48461058  0.71966226     0.08200
H1080       H  0.31912879  0.47727356  0.78691611     0.10900
C1081       C  0.32697341  0.45531452  0.20403297    -0.03700
C1082       C  0.32840054  0.44002130  0.21554899    -0.06300
C1083       C  0.32749149  0.43550456  0.25398129    -0.21400
C1084       C  0.32472204  0.44591022  0.28150661     0.24400
C1085       C  0.32276051  0.46087779  0.26984221    -0.18900
C1086       C  0.32392212  0.46554058  0.23156997    -0.08900
C1087       C  0.32584358  0.44220908  0.32225105    -0.19200
C1088       C  0.31697348  0.44603105  0.34932442    -0.24000
C1089       C  0.32072587  0.44615800  0.39044733     0.26400
C1090       C  0.30760845  0.44510877  0.41655332    -0.20700
C1091       C  0.31175807  0.44799667  0.45516863    -0.10400
C1092       C  0.32926347  0.45231134  0.46834424    -0.10900
C1093       C  0.34214950  0.45267874  0.44242286    -0.03800
C1094       C  0.33794002  0.44960470  0.40392053    -0.19000
H1095       H  0.33093994  0.43198839  0.19500792     0.10100
H1096       H  0.32927431  0.42406312  0.26230415     0.10200
H1097       H  0.32117831  0.46955477  0.29032388     0.09900
H1098       H  0.32288840  0.47746969  0.22363037     0.11000
H1099       H  0.33454039  0.43658778  0.33001877     0.11100
H1100       H  0.30692559  0.44990152  0.34103439     0.13000
H1101       H  0.29430937  0.44262130  0.40687491     0.09500
H1102       H  0.30155871  0.44766987  0.47443750     0.11600
H1103       H  0.35575455  0.45594415  0.45172537     0.08200
H1104       H  0.34858722  0.45096877  0.38469634     0.10900
C1105       C  0.37789007  0.53337196  0.02692118    -0.03700
C1106       C  0.38607764  0.55060171  0.04521010    -0.06300
C1107       C  0.39759739  0.56695354  0.02507727    -0.21400
C1108       C  0.40101782  0.56634389  0.98618600     0.24400
C1109       C  0.39164490  0.54926417  0.96755867    -0.18900
C1110       C  0.38037382  0.53298180  0.98766382    -0.08900
C1111       C  0.41498519  0.58275451  0.96427927    -0.19200
C1112       C  0.43016573  0.59697277  0.98000412    -0.24000
C1113       C  0.44644439  0.61072205  0.95744267     0.26400
C1114       C  0.46396771  0.61893498  0.97427363    -0.20700
C1115       C  0.47992983  0.62988919  0.95295461    -0.10400
C1116       C  0.47875740  0.63324479  0.91436218    -0.10900
C1117       C  0.46118470  0.62617475  0.89809638    -0.03800
C1118       C  0.44517995  0.61498679  0.91935050    -0.19000
H1119       H  0.38438377  0.55135376  0.07542000     0.10100
H1120       H  0.40411030  0.57992838  0.04020464     0.10200
H1121       H  0.39380785  0.54836265  0.93759538     0.09900
H1122       H  0.37415524  0.51995615  0.97265077     0.11000
H1123       H  0.41400381  0.58172222  0.93367858     0.11100
H1124       H  0.43189301  0.59714642  0.01045709     0.13000
H1125       H  0.46539416  0.61610033  0.00361623     0.09500
H1126       H  0.49325001  0.63521027  0.96638338     0.11600
H1127       H  0.45982361  0.62851034  0.86842258     0.08200
H1128       H  0.43192233  0.60942455  0.90560967     0.10900
C1129       C  0.39822829  0.51476336  0.64877874    -0.03700
C1130       C  0.39628700  0.51636400  0.68785537    -0.06300
C1131       C  0.41177008  0.52667067  0.71046031    -0.21400
C1132       C  0.42947632  0.53582362  0.69444649     0.24400
C1133       C  0.43154650  0.53345307  0.65569029    -0.18900
C1134       C  0.41602940  0.52296858  0.63306742    -0.08900
C1135       C  0.44518087  0.54862756  0.71861124    -0.19200
C1136       C  0.45949609  0.56435452  0.70501168    -0.24000
C1137       C  0.47252855  0.57960340  0.72988753     0.26400
C1138       C  0.48014212  0.59777050  0.71655989    -0.20700
C1139       C  0.49087920  0.61269094  0.74020760    -0.10400
C1140       C  0.49444115  0.60977111  0.77768177    -0.10900
C1141       C  0.48764184  0.59158250  0.79051151    -0.03800
C1142       C  0.47675542  0.57659782  0.76682430    -0.19000
H1143       H  0.38275577  0.50996251  0.70088729     0.10100
H1144       H  0.40983996  0.52815513  0.74029654     0.10200
H1145       H  0.44507674  0.53988701  0.64270430     0.09900
H1146       H  0.41793993  0.52175817  0.60311808     0.11000
H1147       H  0.44347880  0.54645302  0.74899308     0.11100
H1148       H  0.46015098  0.56733223  0.67493568     0.13000
H1149       H  0.47720869  0.60045080  0.68815424     0.09500
H1150       H  0.49611694  0.62654678  0.72927259     0.11600
H1151       H  0.49035913  0.58892618  0.81909748     0.08200
H1152       H  0.47155049  0.56274233  0.77760611     0.10900
C1153       C  0.55806232  0.67573877  0.45957592    -0.03700
C1154       C  0.56755810  0.69401540  0.47310120    -0.06300
C1155       C  0.57057423  0.69753969  0.51213206    -0.21400
C1156       C  0.56387262  0.68287497  0.53828729     0.24400
C1157       C  0.55511970  0.66468962  0.52456497    -0.18900
C1158       C  0.55227259  0.66118015  0.48583998    -0.08900
C1159       C  0.56538804  0.68649772  0.57980721    -0.19200
C1160       C  0.55124462  0.67577130  0.60317547    -0.24000
C1161       C  0.55093438  0.67864167  0.64458682     0.26400
C1162       C  0.53399583  0.67403521  0.66121823    -0.20700
C1163       C  0.53231912  0.67465669  0.70035546    -0.10400
C1164       C  0.54747972  0.67951055  0.72425436    -0.10900
C1165       C  0.56460306  0.68432752  0.70769473    -0.03800
C1166       C  0.56636840  0.68406794  0.66807546    -0.19000
H1167       H  0.57230042  0.70554147  0.45365414     0.10100
H1168       H  0.57752054  0.71169348  0.52200243     0.10200
H1169       H  0.55026136  0.65309801  0.54388363     0.09900
H1170       H  0.54511149  0.64692583  0.47659116     0.11000
H1171       H  0.57748282  0.69868959  0.59075279     0.11100
H1172       H  0.53852633  0.66485157  0.59089588     0.13000
H1173       H  0.52187316  0.66966148  0.64379807     0.09500
H1174       H  0.51886766  0.67067458  0.71194874     0.11600
H1175       H  0.57649488  0.68798011  0.72532974     0.08200
H1176       H  0.57953598  0.68735041  0.65598425     0.10900
C1177       C  0.55371810  0.68425879  0.22257152    -0.03700
C1178       C  0.54397082  0.68990525  0.19904435    -0.06300
C1179       C  0.54785569  0.69282485  0.16037693    -0.21400
C1180       C  0.56132426  0.68984516  0.14389626     0.24400
C1181       C  0.57152174  0.68469003  0.16749366    -0.18900
C1182       C  0.56779539  0.68201058  0.20652523    -0.08900
C1183       C  0.56373988  0.69176438  0.10198358    -0.19200
C1184       C  0.56909863  0.68190507  0.08096036    -0.24000
C1185       C  0.56728605  0.68054968  0.03891442     0.26400
C1186       C  0.56380289  0.66405565  0.02167483    -0.20700
C1187       C  0.55999531  0.66122709  0.98301312    -0.10400
C1188       C  0.55987444  0.67496771  0.96028138    -0.10900
C1189       C  0.56447493  0.69196971  0.97695183    -0.03800
C1190       C  0.56808548  0.69472913  0.01596241    -0.19000
H1191       H  0.53314631  0.69191651  0.21048384     0.10100
H1192       H  0.53987010  0.69690115  0.14301998     0.10200
H1193       H  0.58231998  0.68268822  0.15594252     0.09900
H1194       H  0.57558689  0.67773142  0.22394466     0.11000
H1195       H  0.55863059  0.69976920  0.08769663     0.11100
H1196       H  0.57257792  0.67256130  0.09512548     0.13000
H1197       H  0.56327814  0.65297334  0.03848447     0.09500
H1198       H  0.55673984  0.64803881  0.97104806     0.11600
H1199       H  0.56463871  0.70286600  0.96014679     0.08200
H1200       H  0.57126797  0.70785067  0.02808532     0.10900
C1201       C  0.47822476  0.63364016  0.40498180    -0.03700
C1202       C  0.47870311  0.63077158  0.44407575    -0.06300
C1203       C  0.46249611  0.61924163  0.46422497    -0.21400
C1204       C  0.44535239  0.60990025  0.44584573     0.24400
C1205       C  0.44466513  0.61350805  0.40703726    -0.18900
C1206       C  0.46094128  0.62532219  0.38688312    -0.08900
C1207       C  0.42891260  0.59604531  0.46809691    -0.19200
C1208       C  0.41421427  0.58113708  0.45268347    -0.24000
C1209       C  0.39975034  0.56521006  0.47528035     0.26400
C1210       C  0.39603927  0.56653867  0.51375052    -0.20700
C1211       C  0.38374023  0.55066637  0.53450312    -0.10400
C1212       C  0.37494183  0.53314280  0.51734839    -0.10900
C1213       C  0.37783114  0.53205124  0.47846213    -0.03800
C1214       C  0.38993328  0.54786213  0.45773100    -0.19000
H1215       H  0.49175098  0.63696203  0.45892696     0.10100
H1216       H  0.46350048  0.61694115  0.49409165     0.10200
H1217       H  0.43167800  0.60700674  0.39200351     0.09900
H1218       H  0.46009789  0.62717654  0.35675855     0.11000
H1219       H  0.43010243  0.59704891  0.49867658     0.11100
H1220       H  0.41380955  0.57941255  0.42220257     0.13000
H1221       H  0.40283631  0.57969656  0.52816781     0.09500
H1222       H  0.38186036  0.55199059  0.56441946     0.11600
H1223       H  0.37126100  0.51880099  0.46428080     0.08200
H1224       H  0.39227314  0.54635786  0.42813538     0.10900
C1225       C  0.49683260  0.61036666  0.27416710    -0.03700
C1226       C  0.49231053  0.61243057  0.23690185    -0.06300
C1227       C  0.48159607  0.59694264  0.21457045    -0.21400
C1228       C  0.47504932  0.57913890  0.22917197     0.24400
C1229       C  0.48037998  0.57705982  0.26569377    -0.18900
C1230       C  0.49117598  0.59256105  0.28801199    -0.08900
C1231       C  0.46182238  0.56314407  0.20638708    -0.19200
C1232       C  0.44795246  0.54780421  0.22228491    -0.24000
C1233       C  0.43213182  0.53406271  0.19983983     0.26400
C1234       C  0.41448437  0.52565863  0.21606948    -0.20700
C1235       C  0.39892431  0.51476407  0.19408057    -0.10400
C1236       C  0.40080628  0.51190683  0.15556148    -0.10900
C1237       C  0.41855554  0.51923762  0.14003102    -0.03800
C1238       C  0.43411118  0.53023844  0.16198884    -0.19000
H1239       H  0.49665211  0.62599140  0.22528004     0.10100
H1240       H  0.47777040  0.59885497  0.18636337     0.10200
H1241       H  0.47601397  0.56349511  0.27725962     0.09900
H1242       H  0.49470530  0.59056908  0.31640843     0.11000
H1243       H  0.46190081  0.56515493  0.17599169     0.11100
H1244       H  0.44670947  0.54666847  0.25289837     0.13000
H1245       H  0.41267581  0.52829291  0.24530971     0.09500
H1246       H  0.38541089  0.50908697  0.20694551     0.11600
H1247       H  0.42041940  0.51704853  0.11055557     0.08200
H1248       H  0.44762052  0.53608117  0.14908138     0.10900
C1249       C  0.36477944  0.43656333  0.59529158    -0.03700
C1250       C  0.38141988  0.44369717  0.61526718    -0.06300
C1251       C  0.38987847  0.43321357  0.62033093    -0.21400
C1252       C  0.38211528  0.41535576  0.60521980     0.24400
C1253       C  0.36507013  0.40788536  0.58612933    -0.18900
C1254       C  0.35642170  0.41840155  0.58145809    -0.08900
C1255       C  0.39296520  0.40581114  0.60910060    -0.19200
C1256       C  0.38873474  0.38944576  0.59358078    -0.24000
C1257       C  0.40157665  0.38207073  0.59586026     0.26400
C1258       C  0.39460153  0.36289688  0.59556610    -0.20700
C1259       C  0.40656072  0.35579924  0.59788834    -0.10400
C1260       C  0.42576098  0.36779780  0.59991534    -0.10900
C1261       C  0.43269405  0.38696245  0.59922006    -0.03800
C1262       C  0.42081294  0.39400229  0.59709445    -0.19000
H1263       H  0.38812376  0.45761703  0.62646716     0.10100
H1264       H  0.40290039  0.43936064  0.63531881     0.10200
H1265       H  0.35849275  0.39416561  0.57418727     0.09900
H1266       H  0.34363004  0.41263699  0.56576313     0.11000
H1267       H  0.40564186  0.41311667  0.62530822     0.11100
H1268       H  0.37571717  0.38115077  0.57910250     0.13000
H1269       H  0.37986228  0.35340162  0.59403987     0.09500
H1270       H  0.40080155  0.34096861  0.59806306     0.11600
H1271       H  0.44740506  0.39663503  0.60038056     0.08200
H1272       H  0.42682666  0.40884353  0.59576733     0.10900
C1273       C  0.36549927  0.43312665  0.08936348    -0.03700
C1274       C  0.35342754  0.41407609  0.08417428    -0.06300
C1275       C  0.36001323  0.40166085  0.08580368    -0.21400
C1276       C  0.37880302  0.40802499  0.09227649     0.24400
C1277       C  0.39068486  0.42698847  0.09908683    -0.18900
C1278       C  0.38413278  0.43934315  0.09753019    -0.08900
C1279       C  0.38565033  0.39467035  0.09240826    -0.19200
C1280       C  0.40308040  0.39969523  0.08223774    -0.24000
C1281       C  0.41133051  0.38753223  0.08307373     0.26400
C1282       C  0.42879556  0.39435909  0.06648364    -0.20700
C1283       C  0.43833001  0.38479946  0.06994230    -0.10400
C1284       C  0.43063756  0.36801366  0.08989222    -0.10900
C1285       C  0.41276420  0.36055377  0.10493019    -0.03800
C1286       C  0.40320959  0.37027982  0.10180758    -0.19000
H1287       H  0.33898244  0.40880905  0.07808750     0.10100
H1288       H  0.35048950  0.38709811  0.08108100     0.10200
H1289       H  0.40508004  0.43237224  0.10581107     0.09900
H1290       H  0.39378991  0.45387412  0.10232408     0.11000
H1291       H  0.37590193  0.38039827  0.09954432     0.11100
H1292       H  0.41202902  0.41372178  0.07219592     0.13000
H1293       H  0.43540802  0.40750463  0.05172432     0.09500
H1294       H  0.45203714  0.39083621  0.05780917     0.11600
H1295       H  0.40659061  0.34771140  0.12074203     0.08200
H1296       H  0.38988588  0.36456368  0.11535841     0.10900
C1297       C  0.45132639  0.32425537  0.98005344    -0.03700
C1298       C  0.46043589  0.31741928  0.95779899    -0.06300
C1299       C  0.45672588  0.31421062  0.91915714    -0.21400
C1300       C  0.44413974  0.31814139  0.90156942     0.24400
C1301       C  0.43439231  0.32425292  0.92405041    -0.18900
C1302       C  0.43788929  0.32717698  0.96302035    -0.08900
C1303       C  0.44239611  0.31666936  0.85958706    -0.19200
C1304       C  0.43971572  0.32852865  0.83862301    -0.24000
C1305       C  0.44232291  0.33044747  0.79683929     0.26400
C1306       C  0.44880735  0.34798667  0.78094766    -0.20700
C1307       C  0.45209500  0.35089444  0.74216535    -0.10400
C1308       C  0.44867043  0.33623773  0.71785251    -0.10900
C1309       C  0.44182422  0.31849502  0.73352400    -0.03800
C1310       C  0.43875650  0.31562406  0.77275229    -0.19000
H1311       H  0.47067026  0.31477283  0.97020295     0.10100
H1312       H  0.46429837  0.30935214  0.90263030     0.10200
H1313       H  0.42423210  0.32696430  0.91153221     0.09900
H1314       H  0.43054617  0.33229196  0.97954017     0.11000
H1315       H  0.44602779  0.30743660  0.84551257     0.11100
H1316       H  0.43791736  0.33895213  0.85299955     0.13000
H1317       H  0.45167244  0.35963644  0.79877504     0.09500
H1318       H  0.45731638  0.36473919  0.73123140     0.11600
H1319       H  0.43899706  0.30691183  0.71556092     0.08200
H1320       H  0.43344870  0.30183763  0.78405917     0.10900
C1321       C  0.44492158  0.32989585  0.21600369    -0.03700
C1322       C  0.43876516  0.31177389  0.22855414    -0.06300
C1323       C  0.43558452  0.30734511  0.26714850    -0.21400
C1324       C  0.43817617  0.32082506  0.29389503     0.24400
C1325       C  0.44408568  0.33888686  0.28124991    -0.18900
C1326       C  0.44743054  0.34334993  0.24282462    -0.08900
C1327       C  0.43654785  0.31622395  0.33492764    -0.04800
C1328       C  0.43287233  0.32540565  0.36163890    -0.24000
C1329       C  0.43504162  0.32343454  0.40291137     0.26400
C1330       C  0.42580553  0.32848981  0.42923403    -0.20700
C1331       C  0.42968917  0.32927984  0.46804525    -0.10400
C1332       C  0.44316488  0.32536947  0.48104325    -0.10900
C1333       C  0.45184652  0.31964338  0.45484810    -0.03800
C1334       C  0.44785445  0.31867347  0.41633230    -0.19000
H1335       H  0.43690850  0.30114745  0.20870724     0.10100
H1336       H  0.43133411  0.29340297  0.27622562     0.10200
H1337       H  0.44686645  0.34980627  0.30107070     0.09900
H1338       H  0.45236623  0.35750126  0.23423028     0.11000
H1339       H  0.43886948  0.30510245  0.34334181     0.11100
H1340       H  0.42874478  0.33523825  0.35307826     0.13000
H1341       H  0.41599568  0.33238951  0.41961288     0.09500
H1342       H  0.42288307  0.33387140  0.48756266     0.11600
H1343       H  0.46231514  0.31656063  0.46397428     0.08200
H1344       H  0.45564892  0.31520819  0.39706164     0.10900
C1345       C  0.71227104  0.53414664  0.83747130    -0.03700
C1346       C  0.72857774  0.55012199  0.84880353    -0.06300
C1347       C  0.74416936  0.54915554  0.85949418    -0.21400
C1348       C  0.74376021  0.53213428  0.85914826     0.24400
C1349       C  0.72775946  0.51641574  0.84606943    -0.18900
C1350       C  0.71221153  0.51736643  0.83554390    -0.08900
C1351       C  0.75961851  0.53003442  0.87150128    -0.19200
C1352       C  0.77339604  0.54203800  0.89418513    -0.24000
C1353       C  0.78936702  0.53985078  0.90494053     0.26400
C1354       C  0.80651989  0.55575472  0.91149691    -0.20700
C1355       C  0.82217223  0.55442795  0.91899084    -0.10400
C1356       C  0.82101942  0.53709918  0.92072751    -0.10900
C1357       C  0.80362952  0.52109630  0.91625977    -0.03800
C1358       C  0.78796310  0.52244187  0.90846394    -0.19000
H1359       H  0.72910428  0.56327275  0.85061655     0.10100
H1360       H  0.75640336  0.56175067  0.86807883     0.10200
H1361       H  0.72708629  0.50317910  0.84497943     0.09900
H1362       H  0.69990856  0.50476648  0.82701901     0.11000
H1363       H  0.75975325  0.51785596  0.86164588     0.11100
H1364       H  0.77358315  0.55437715  0.90394424     0.13000
H1365       H  0.80796334  0.56931758  0.90942602     0.09500
H1366       H  0.83531796  0.56706049  0.92225716     0.11600
H1367       H  0.80222450  0.50753833  0.91752810     0.08200
H1368       H  0.77483551  0.50984480  0.90492734     0.10900
C1369       C  0.63503003  0.57213406  0.83071708    -0.03700
C1370       C  0.61726601  0.56441790  0.84632442    -0.06300
C1371       C  0.60884285  0.57498436  0.85061741    -0.21400
C1372       C  0.61776100  0.59355846  0.83907912     0.24400
C1373       C  0.63577850  0.60153539  0.82408333    -0.18900
C1374       C  0.64436214  0.59090333  0.82015548    -0.08900
C1375       C  0.60712882  0.60336902  0.84244198    -0.19200
C1376       C  0.61222465  0.62036920  0.82890588    -0.24000
C1377       C  0.59944196  0.62786852  0.83030050     0.26400
C1378       C  0.60646237  0.64698214  0.83364468    -0.20700
C1379       C  0.59447413  0.65404867  0.83620512    -0.10400
C1380       C  0.57521976  0.64211842  0.83498511    -0.10900
C1381       C  0.56830472  0.62311068  0.83003716    -0.03800
C1382       C  0.58021423  0.61609754  0.82756165    -0.19000
H1383       H  0.60972351  0.55004784  0.85500676     0.10100
H1384       H  0.59503146  0.56841442  0.86236962     0.10200
H1385       H  0.64323909  0.61580987  0.81504230     0.09900
H1386       H  0.65806150  0.59720557  0.80794294     0.11000
H1387       H  0.59379156  0.59568113  0.85632593     0.11100
H1388       H  0.62582550  0.62901580  0.81680200     0.13000
H1389       H  0.62121654  0.65640200  0.83518552     0.09500
H1390       H  0.60025769  0.66878091  0.83984399     0.11600
H1391       H  0.55358613  0.61352768  0.82849921     0.08200
H1392       H  0.57425767  0.60139726  0.82324921     0.10900
C1393       C  0.60352152  0.49112962  0.88675690    -0.03700
C1394       C  0.58619072  0.48286601  0.86907947    -0.06300
C1395       C  0.57041124  0.46982457  0.88840245    -0.21400
C1396       C  0.57159770  0.46498231  0.92585976     0.24400
C1397       C  0.58889722  0.47354147  0.94385000    -0.18900
C1398       C  0.60468024  0.48651705  0.92449234    -0.08900
C1399       C  0.55490373  0.44982475  0.94412412    -0.19200
C1400       C  0.55276378  0.44783419  0.98187682    -0.24000
C1401       C  0.53740524  0.43128719  0.00022674     0.26400
C1402       C  0.53297537  0.43247836  0.03800445    -0.20700
C1403       C  0.51991633  0.41671402  0.05745081    -0.10400
C1404       C  0.51120800  0.39941249  0.03951684    -0.10900
C1405       C  0.51530136  0.39829449  0.00143467    -0.03800
C1406       C  0.52829395  0.41403148  0.98199774    -0.19000
H1407       H  0.58488712  0.48602909  0.83991423     0.10100
H1408       H  0.55727463  0.46325815  0.87383790     0.10200
H1409       H  0.59047182  0.46972685  0.97227015     0.09900
H1410       H  0.61787583  0.49252164  0.93875196     0.11000
H1411       H  0.54407338  0.44001496  0.92564210     0.11100
H1412       H  0.56270082  0.45863831  0.00025560     0.13000
H1413       H  0.53993501  0.44557506  0.05275165     0.09500
H1414       H  0.51712252  0.41797855  0.08688091     0.11600
H1415       H  0.50889365  0.38513124  0.98693055     0.08200
H1416       H  0.53170645  0.41238247  0.95331507     0.10900
C1417       C  0.62929065  0.47611691  0.76342688    -0.03700
C1418       C  0.62322624  0.45941328  0.78307017    -0.06300
C1419       C  0.61035896  0.44254862  0.76671670    -0.21400
C1420       C  0.60345295  0.44194032  0.73022346     0.24400
C1421       C  0.61061971  0.45852299  0.70945611    -0.18900
C1422       C  0.62337814  0.47540144  0.72591618    -0.08900
C1423       C  0.58700240  0.42447215  0.71721438    -0.19200
C1424       C  0.58151188  0.42077473  0.68084353    -0.24000
C1425       C  0.56299825  0.40533483  0.66954645     0.26400
C1426       C  0.56044813  0.39777293  0.63311142    -0.20700
C1427       C  0.54273482  0.38498739  0.62002977    -0.10400
C1428       C  0.52712628  0.37975198  0.64291439    -0.10900
C1429       C  0.52976233  0.38691072  0.67980063    -0.03800
C1430       C  0.54745490  0.39951045  0.69298680    -0.19000
H1431       H  0.62739614  0.45945023  0.81207903     0.10100
H1432       H  0.60506011  0.43001983  0.78341316     0.10200
H1433       H  0.60547139  0.45876451  0.68154934     0.09900
H1434       H  0.62772129  0.48801219  0.71004556     0.11000
H1435       H  0.57858668  0.41458656  0.73895090     0.11100
H1436       H  0.59058544  0.42959479  0.65848072     0.13000
H1437       H  0.57214731  0.40217565  0.61432145     0.09500
H1438       H  0.54119138  0.37995128  0.59130252     0.11600
H1439       H  0.51805114  0.38338750  0.69800381     0.08200
H1440       H  0.54876766  0.40542205  0.72079795     0.10900
C1441       C  0.70862199  0.52839621  0.33673217    -0.03700
C1442       C  0.70798842  0.51130791  0.33586314    -0.06300
C1443       C  0.72358284  0.51014985  0.34509074    -0.21400
C1444       C  0.74008827  0.52596303  0.35587257     0.24400
C1445       C  0.74104289  0.54321913  0.35458045    -0.18900
C1446       C  0.72547492  0.54439630  0.34517700    -0.08900
C1447       C  0.75593854  0.52391093  0.36820689    -0.19200
C1448       C  0.76928895  0.53589376  0.39167333    -0.24000
C1449       C  0.78547784  0.53430211  0.40320898     0.26400
C1450       C  0.78490500  0.51724762  0.40548145    -0.20700
C1451       C  0.80086127  0.51662018  0.41432196    -0.10400
C1452       C  0.81769263  0.53300536  0.42089890    -0.10900
C1453       C  0.81795049  0.54990619  0.42052368    -0.03800
C1454       C  0.80200387  0.55050514  0.41208278    -0.19000
H1455       H  0.69524506  0.49870295  0.32941282     0.10100
H1456       H  0.72253951  0.49672988  0.34517411     0.10200
H1457       H  0.75371190  0.55585011  0.36108206     0.09900
H1458       H  0.72647591  0.55778371  0.34593016     0.11000
H1459       H  0.75632892  0.51188870  0.35813622     0.11100
H1460       H  0.76887474  0.54787987  0.40185242     0.13000
H1461       H  0.77224010  0.50440276  0.40014142     0.09500
H1462       H  0.80018499  0.50337725  0.41445621     0.11600
H1463       H  0.83065533  0.56278944  0.42552934     0.08200
H1464       H  0.80276679  0.56379240  0.41107742     0.10900
C1465       C  0.63475165  0.57074270  0.33444358    -0.03700
C1466       C  0.61784951  0.56400363  0.35341434    -0.06300
C1467       C  0.60924834  0.57448877  0.35551901    -0.21400
C1468       C  0.61715164  0.59201754  0.33855231     0.24400
C1469       C  0.63444071  0.59914517  0.32044542    -0.18900
C1470       C  0.64321074  0.58860056  0.31863919    -0.08900
C1471       C  0.60608241  0.60145372  0.33911178    -0.19200
C1472       C  0.61180478  0.61890550  0.32764079    -0.24000
C1473       C  0.59929944  0.62675536  0.32884273     0.26400
C1474       C  0.60659856  0.64573026  0.33532336    -0.20700
C1475       C  0.59491787  0.65312761  0.33854797    -0.10400
C1476       C  0.57567692  0.64169712  0.33499608    -0.10900
C1477       C  0.56849520  0.62287289  0.32688967    -0.03800
C1478       C  0.58012312  0.61552321  0.32365432    -0.19000
H1479       H  0.61101365  0.55034214  0.36605447     0.10100
H1480       H  0.59603079  0.56860104  0.36978867     0.10200
H1481       H  0.64097883  0.61250878  0.30670468     0.09900
H1482       H  0.65616167  0.59405565  0.30351323     0.11000
H1483       H  0.59219176  0.59338181  0.35046714     0.11100
H1484       H  0.62601155  0.62792343  0.31893917     0.13000
H1485       H  0.62132600  0.65475804  0.33890796     0.09500
H1486       H  0.60091421  0.66770431  0.34459910     0.11600
H1487       H  0.55378908  0.61370788  0.32334658     0.08200
H1488       H  0.57400652  0.60100186  0.31701291     0.10900
C1489       C  0.60175891  0.49237972  0.39720464    -0.03700
C1490       C  0.60340238  0.48823596  0.43502838    -0.06300
C1491       C  0.58769890  0.47753245  0.45696697    -0.21400
C1492       C  0.57004473  0.47060118  0.44152262     0.24400
C1493       C  0.56834773  0.47535023  0.40415501    -0.18900
C1494       C  0.58408437  0.48614184  0.38219869    -0.08900
C1495       C  0.55387255  0.45796315  0.46494458    -0.19200
C1496       C  0.53805014  0.44437126  0.45016758    -0.24000
C1497       C  0.52396432  0.42929254  0.47402311     0.26400
C1498       C  0.51470624  0.41129977  0.45948968    -0.20700
C1499       C  0.50365362  0.39631424  0.48302055    -0.10400
C1500       C  0.50149907  0.39910525  0.52146346    -0.10900
C1501       C  0.50955533  0.41725391  0.53522353    -0.03800
C1502       C  0.52069991  0.43224031  0.51169522    -0.19000
H1503       H  0.61682610  0.49293045  0.44749724     0.10100
H1504       H  0.58935296  0.47415487  0.48576987     0.10200
H1505       H  0.55493502  0.47069034  0.39174302     0.09900
H1506       H  0.58239375  0.48929217  0.35325747     0.11000
H1507       H  0.55596229  0.45836105  0.49533997     0.11100
H1508       H  0.53659250  0.44267199  0.41968672     0.13000
H1509       H  0.51685668  0.40873130  0.43042204     0.09500
H1510       H  0.49741282  0.38249741  0.47144356     0.11600
H1511       H  0.50790606  0.41984793  0.56456403     0.08200
H1512       H  0.52717507  0.44605295  0.52331310     0.10900
C1513       C  0.67233616  0.55765249  0.70898961    -0.03700
C1514       C  0.66078324  0.56156280  0.68712567    -0.06300
C1515       C  0.66389465  0.56503435  0.64843975    -0.21400
C1516       C  0.67842857  0.56436063  0.63038598     0.24400
C1517       C  0.69058364  0.56127296  0.65262831    -0.18900
C1518       C  0.68756676  0.55801264  0.69168904    -0.08900
C1519       C  0.67954367  0.56607724  0.58831814    -0.19200
C1520       C  0.68882540  0.56041962  0.56620772    -0.24000
C1521       C  0.68658807  0.55846385  0.52427023     0.26400
C1522       C  0.69151160  0.54672213  0.50603401    -0.20700
C1523       C  0.68764083  0.54251340  0.46773714    -0.10400
C1524       C  0.67901427  0.55019143  0.44652562    -0.10900
C1525       C  0.67516525  0.56290478  0.46387269    -0.03800
C1526       C  0.67888241  0.56700964  0.50242877    -0.19000
H1527       H  0.64904250  0.56155984  0.69988049     0.10100
H1528       H  0.65443290  0.56756706  0.63229127     0.10200
H1529       H  0.70226438  0.56113171  0.64017634     0.09900
H1530       H  0.69667850  0.55504637  0.70804766     0.11000
H1531       H  0.67065109  0.57034400  0.57515877     0.11100
H1532       H  0.69680987  0.55504031  0.57932077     0.13000
H1533       H  0.69770863  0.54016114  0.52181948     0.09500
H1534       H  0.69107268  0.53291769  0.45483543     0.11600
H1535       H  0.66866726  0.56914011  0.44798688     0.08200
H1536       H  0.67547679  0.57667792  0.51481403     0.10900
C1537       C  0.67435038  0.55098932  0.94479337    -0.03700
C1538       C  0.66943504  0.56361322  0.95858865    -0.06300
C1539       C  0.66926511  0.56648979  0.99757608    -0.21400
C1540       C  0.67426711  0.55704086  0.02348124     0.24400
C1541       C  0.67964101  0.54475688  0.00945176    -0.18900
C1542       C  0.67967134  0.54179135  0.97059290    -0.08900
C1543       C  0.67219769  0.55910029  0.06474569    -0.19200
C1544       C  0.68053496  0.55454193  0.09179013    -0.24000
C1545       C  0.67677452  0.55443502  0.13296910     0.26400
C1546       C  0.68962215  0.55487441  0.15900523    -0.20700
C1547       C  0.68591585  0.55322830  0.19788172    -0.10400
C1548       C  0.66910938  0.55078681  0.21147916    -0.10900
C1549       C  0.65634105  0.55058733  0.18552401    -0.03800
C1550       C  0.66011001  0.55240513  0.14671880    -0.19000
H1551       H  0.66504438  0.57072190  0.93936116     0.10100
H1552       H  0.66487001  0.57586390  0.00758039     0.10200
H1553       H  0.68307433  0.53675950  0.02824675     0.09900
H1554       H  0.68343807  0.53190825  0.96076843     0.11000
H1555       H  0.66343124  0.56456615  0.07292074     0.11100
H1556       H  0.69065741  0.55076569  0.08373813     0.13000
H1557       H  0.70245678  0.55619594  0.14917638     0.09500
H1558       H  0.69591883  0.55320265  0.21717240     0.11600
H1559       H  0.64321032  0.54860605  0.19516523     0.08200
H1560       H  0.64959141  0.55143939  0.12767224     0.10900
C1561       C  0.62614921  0.47290819  0.26942854    -0.03700
C1562       C  0.62356194  0.47303454  0.23018178    -0.06300
C1563       C  0.61228267  0.45657605  0.21084668    -0.21400
C1564       C  0.60309299  0.43966313  0.23034939     0.24400
C1565       C  0.60679964  0.43935797  0.26914319    -0.18900
C1566       C  0.61824540  0.45584528  0.28846510    -0.08900
C1567       C  0.58885410  0.42307435  0.20973395    -0.19200
C1568       C  0.57402273  0.40905904  0.22698686    -0.24000
C1569       C  0.55743854  0.39499865  0.20613675     0.26400
C1570       C  0.54024699  0.38708606  0.22440280    -0.20700
C1571       C  0.52395999  0.37583050  0.20458080    -0.10400
C1572       C  0.52449868  0.37199516  0.16606447    -0.10900
C1573       C  0.54176682  0.37872004  0.14847568    -0.03800
C1574       C  0.55810001  0.39013993  0.16827962    -0.19000
H1575       H  0.62962152  0.48595892  0.21467114     0.10100
H1576       H  0.60991223  0.45720826  0.18088764     0.10200
H1577       H  0.60052380  0.42652128  0.28489916     0.09900
H1578       H  0.62007068  0.45531193  0.31868919     0.11000
H1579       H  0.58931251  0.42375002  0.17904540     0.11100
H1580       H  0.57278173  0.40926832  0.25752688     0.13000
H1581       H  0.53932619  0.39040756  0.25363858     0.09500
H1582       H  0.51088970  0.37079834  0.21902200     0.11600
H1583       H  0.54264171  0.37597667  0.11884073     0.08200
H1584       H  0.57112437  0.39546393  0.15358809     0.10900
C1585       C  0.53489840  0.71743945  0.84009971    -0.03700
C1586       C  0.55180652  0.73421643  0.84041068    -0.06300
C1587       C  0.55265344  0.75085582  0.83090627    -0.21400
C1588       C  0.53670450  0.75117626  0.82024209     0.24400
C1589       C  0.51961621  0.73450617  0.82173277    -0.18900
C1590       C  0.51874745  0.71785698  0.83160036    -0.08900
C1591       C  0.53859019  0.76916672  0.80813430    -0.19200
C1592       C  0.52610326  0.77069729  0.78670252    -0.24000
C1593       C  0.52795314  0.78875118  0.77543163     0.26400
C1594       C  0.51188369  0.78944205  0.76809556    -0.20700
C1595       C  0.51282289  0.80622730  0.75969624    -0.10400
C1596       C  0.52992730  0.82279474  0.75794933    -0.10900
C1597       C  0.54610900  0.82197229  0.76322533    -0.03800
C1598       C  0.54515506  0.80515508  0.77181868    -0.19000
H1599       H  0.56451253  0.73441504  0.84683737     0.10100
H1600       H  0.56596493  0.76347416  0.83065338     0.10200
H1601       H  0.50688231  0.73416301  0.81512027     0.09900
H1602       H  0.50549512  0.70518464  0.83100573     0.11000
H1603       H  0.55102680  0.78164814  0.81687793     0.11100
H1604       H  0.51360147  0.75829280  0.77798588     0.13000
H1605       H  0.49846226  0.77701602  0.77016633     0.09500
H1606       H  0.50006492  0.80629769  0.75589607     0.11600
H1607       H  0.55951992  0.83443566  0.76193711     0.08200
H1608       H  0.55789875  0.80511274  0.77584269     0.10900
C1609       C  0.53751736  0.71879837  0.33376945    -0.03700
C1610       C  0.55474362  0.73525063  0.33245363    -0.06300
C1611       C  0.55602332  0.75216129  0.32363311    -0.21400
C1612       C  0.54018349  0.75312953  0.31531009     0.24400
C1613       C  0.52284500  0.73678415  0.31792347    -0.18900
C1614       C  0.52155068  0.71984085  0.32704116    -0.08900
C1615       C  0.54241235  0.77147649  0.30485210    -0.19200
C1616       C  0.53001611  0.77354453  0.28423268    -0.24000
C1617       C  0.53183137  0.79180306  0.27457785     0.26400
C1618       C  0.51578241  0.79221882  0.26538408    -0.20700
C1619       C  0.51643597  0.80896539  0.25820688    -0.10400
C1620       C  0.53323551  0.82586107  0.25958892    -0.10900
C1621       C  0.54949533  0.82543690  0.26688343    -0.03800
C1622       C  0.54882736  0.80861379  0.27426908    -0.19000
H1623       H  0.56735575  0.73501393  0.33731393     0.10100
H1624       H  0.56953607  0.76449632  0.32233273     0.10200
H1625       H  0.51023383  0.73696980  0.31301098     0.09900
H1626       H  0.50806137  0.70745795  0.32767802     0.11000
H1627       H  0.55495326  0.78366224  0.31413174     0.11100
H1628       H  0.51754918  0.76130043  0.27483860     0.13000
H1629       H  0.50253136  0.77954346  0.26490566     0.09500
H1630       H  0.50361204  0.80868701  0.25269832     0.11600
H1631       H  0.56268097  0.83816608  0.26810357     0.08200
H1632       H  0.56162280  0.80890961  0.27990992     0.10900
C1633       C  0.55296077  0.87798427  0.37184562    -0.03700
C1634       C  0.54514256  0.86188297  0.39414603    -0.06300
C1635       C  0.54919371  0.86270677  0.43264131    -0.21400
C1636       C  0.56089696  0.87966815  0.45023837     0.24400
C1637       C  0.56941552  0.89579894  0.42764997    -0.18900
C1638       C  0.56552561  0.89492314  0.38873063    -0.08900
C1639       C  0.56298943  0.87967803  0.49224701    -0.19200
C1640       C  0.56755408  0.89443919  0.51442774    -0.24000
C1641       C  0.56537756  0.89328936  0.55653474     0.26400
C1642       C  0.56294294  0.90675230  0.57473747    -0.20700
C1643       C  0.55879973  0.90533826  0.61331305    -0.10400
C1644       C  0.55725289  0.89054879  0.63508700    -0.10900
C1645       C  0.56078686  0.87761781  0.61759194    -0.03800
C1646       C  0.56476722  0.87892593  0.57863613    -0.19000
H1647       H  0.53557835  0.84858362  0.38190108     0.10100
H1648       H  0.54257476  0.85003962  0.44906111     0.10200
H1649       H  0.57892574  0.90909493  0.43984765     0.09900
H1650       H  0.57181676  0.90754520  0.37217105     0.11000
H1651       H  0.55835858  0.86636490  0.50554485     0.11100
H1652       H  0.57083605  0.90744670  0.50119992     0.13000
H1653       H  0.56353174  0.91807893  0.55873688     0.09500
H1654       H  0.55642804  0.91570899  0.62599973     0.11600
H1655       H  0.55983281  0.86615941  0.63368971     0.08200
H1656       H  0.56714082  0.86857305  0.56602052     0.10900
C1657       C  0.54861433  0.87374901  0.87148624    -0.03700
C1658       C  0.53773231  0.85816088  0.89429350    -0.06300
C1659       C  0.54056809  0.85864480  0.93330011    -0.21400
C1660       C  0.55414181  0.87479830  0.95086716     0.24400
C1661       C  0.56560560  0.89025843  0.92801471    -0.18900
C1662       C  0.56290575  0.88969437  0.88862168    -0.08900
C1663       C  0.55539642  0.87491666  0.99302717    -0.19200
C1664       C  0.56083744  0.89019453  0.01409057    -0.24000
C1665       C  0.55883218  0.88987321  0.05614670     0.26400
C1666       C  0.55674656  0.90381890  0.07311995    -0.20700
C1667       C  0.55377316  0.90368029  0.11206481    -0.10400
C1668       C  0.55318806  0.88978314  0.13536484    -0.10900
C1669       C  0.55596497  0.87614686  0.11878652    -0.03800
C1670       C  0.55866336  0.87611459  0.07950211    -0.19000
H1671       H  0.52671313  0.84557278  0.88204295     0.10100
H1672       H  0.53165421  0.84649059  0.95002438     0.10200
H1673       H  0.57655297  0.90280145  0.94046646     0.09900
H1674       H  0.57157614  0.90188885  0.87180434     0.11000
H1675       H  0.54956374  0.86161023  0.00713990     0.11100
H1676       H  0.56505660  0.90321389  0.99979859     0.13000
H1677       H  0.55692315  0.91464098  0.05599800     0.09500
H1678       H  0.55178187  0.91444402  0.12395693     0.11600
H1679       H  0.55555379  0.86524699  0.13602378     0.08200
H1680       H  0.56064094  0.86535961  0.06761893     0.10900
C1681       C  0.70766330  0.18429647  0.76175096    -0.03700
C1682       C  0.72398633  0.18351850  0.76296615    -0.06300
C1683       C  0.74100306  0.19918019  0.75472261    -0.21400
C1684       C  0.74205787  0.21585948  0.74447450     0.24400
C1685       C  0.72587178  0.21692309  0.74497332    -0.18900
C1686       C  0.70884938  0.20129136  0.75360234    -0.08900
C1687       C  0.76026798  0.23178466  0.73354956    -0.19200
C1688       C  0.76230169  0.24476322  0.70825552    -0.24000
C1689       C  0.78056961  0.26049566  0.69652470     0.26400
C1690       C  0.78148980  0.27647349  0.68156993    -0.20700
C1691       C  0.79852409  0.29202886  0.67263664    -0.10400
C1692       C  0.81500542  0.29183641  0.67806698    -0.10900
C1693       C  0.81399465  0.27545944  0.69080964    -0.03800
C1694       C  0.79699355  0.25995357  0.69986578    -0.19000
H1695       H  0.72355762  0.17064072  0.76907406     0.10100
H1696       H  0.75331405  0.19808472  0.75500227     0.10200
H1697       H  0.72628130  0.22974214  0.73848858     0.09900
H1698       H  0.69653003  0.20235399  0.75242922     0.11000
H1699       H  0.77232464  0.23229181  0.74589502     0.11100
H1700       H  0.75012953  0.24410051  0.69602840     0.13000
H1701       H  0.76903769  0.27715847  0.67804786     0.09500
H1702       H  0.79881982  0.30441167  0.66274066     0.11600
H1703       H  0.82641976  0.27480236  0.69510275     0.08200
H1704       H  0.79688706  0.24767903  0.70964419     0.10900
C1705       C  0.62863492  0.06949435  0.75996042    -0.03700
C1706       C  0.61135701  0.05912576  0.74254396    -0.06300
C1707       C  0.60305665  0.03998518  0.73937475    -0.21400
C1708       C  0.61170260  0.03064323  0.75373948     0.24400
C1709       C  0.62931704  0.04108435  0.77019816    -0.18900
C1710       C  0.63773596  0.06035992  0.77302448    -0.08900
C1711       C  0.60113844  0.01006375  0.75271570    -0.19200
C1712       C  0.60752452  0.99886412  0.76345458    -0.24000
C1713       C  0.59542541  0.97839337  0.76348642     0.26400
C1714       C  0.60293834  0.96706443  0.75611595    -0.20700
C1715       C  0.59147999  0.94780349  0.75384192    -0.10400
C1716       C  0.57232757  0.93957970  0.75923441    -0.10900
C1717       C  0.56502676  0.95090102  0.76858652    -0.03800
C1718       C  0.57641340  0.97002019  0.77090090    -0.19000
H1719       H  0.60406463  0.06578841  0.73189546     0.10100
H1720       H  0.58955111  0.03238650  0.72642807     0.10200
H1721       H  0.63647196  0.03453747  0.78188873     0.09900
H1722       H  0.65105284  0.06803179  0.78669786     0.11000
H1723       H  0.58706812  0.00374748  0.74239702     0.11100
H1724       H  0.62187399  0.00453117  0.77106770     0.13000
H1725       H  0.61759511  0.97316718  0.75095227     0.09500
H1726       H  0.59751553  0.93942876  0.74677189     0.11600
H1727       H  0.55037968  0.94499827  0.77363170     0.08200
H1728       H  0.57023630  0.97820491  0.77842961     0.10900
C1729       C  0.81968481  0.29448210  0.18420499    -0.03700
C1730       C  0.81899445  0.27740412  0.18299451    -0.06300
C1731       C  0.80278084  0.26107846  0.19266002    -0.21400
C1732       C  0.78696840  0.26143567  0.20434187     0.24400
C1733       C  0.78741885  0.27844367  0.20415311    -0.18900
C1734       C  0.80359107  0.29476002  0.19412925    -0.08900
C1735       C  0.77033138  0.24372854  0.21578209    -0.19200
C1736       C  0.75670286  0.24247592  0.23819811    -0.24000
C1737       C  0.74016389  0.22448207  0.24869364     0.26400
C1738       C  0.72345830  0.22383348  0.25673657    -0.20700
C1739       C  0.70729383  0.20690551  0.26352016    -0.10400
C1740       C  0.70758452  0.19028434  0.26290404    -0.10900
C1741       C  0.72456543  0.19110197  0.25734314    -0.03800
C1742       C  0.74065945  0.20797274  0.25042010    -0.19000
H1743       H  0.83113746  0.27670332  0.17554251     0.10100
H1744       H  0.80275711  0.24814919  0.19203715     0.10200
H1745       H  0.77538327  0.27928120  0.21169861     0.09900
H1746       H  0.80365795  0.30769724  0.19544813     0.11000
H1747       H  0.76953149  0.23115914  0.20550089     0.11100
H1748       H  0.75723438  0.25494597  0.24828979     0.13000
H1749       H  0.72275574  0.23638286  0.25629129     0.09500
H1750       H  0.69447007  0.20678311  0.26792229     0.11600
H1751       H  0.72535216  0.17860344  0.25712023     0.08200
H1752       H  0.75340233  0.20795361  0.24613080     0.10900
C1753       C  0.56960423  0.94200882  0.25949259    -0.03700
C1754       C  0.56112683  0.95158094  0.27353128    -0.06300
C1755       C  0.57096173  0.97074581  0.27706885    -0.21400
C1756       C  0.58958112  0.98111561  0.26642174     0.24400
C1757       C  0.59834218  0.97163761  0.25289845    -0.18900
C1758       C  0.58842215  0.95220955  0.24963973    -0.08900
C1759       C  0.59880097  0.00161964  0.27040906    -0.19200
C1760       C  0.61495301  0.01424238  0.25442611    -0.24000
C1761       C  0.62210261  0.03454829  0.25761297     0.26400
C1762       C  0.64120180  0.04719738  0.25658040    -0.20700
C1763       C  0.64808362  0.06627262  0.26061949    -0.10400
C1764       C  0.63594632  0.07307925  0.26525338    -0.10900
C1765       C  0.61684748  0.06043147  0.26491633    -0.03800
C1766       C  0.61002828  0.04150743  0.26098162    -0.19000
H1767       H  0.54669616  0.94423785  0.28159371     0.10100
H1768       H  0.56380720  0.97754780  0.28771879     0.10200
H1769       H  0.61275062  0.97907309  0.24491732     0.09900
H1770       H  0.59532507  0.94523359  0.23865345     0.11000
H1771       H  0.59133334  0.00660422  0.28705098     0.11100
H1772       H  0.62318134  0.00980431  0.23891669     0.13000
H1773       H  0.65082161  0.04227510  0.25337355     0.09500
H1774       H  0.66286266  0.07564837  0.26042439     0.11600
H1775       H  0.60703840  0.06513299  0.26787856     0.08200
H1776       H  0.59522311  0.03241077  0.26016375     0.10900
C1777       C  0.67458154  0.13733616  0.14953138    -0.03700
C1778       C  0.67929731  0.12436930  0.13668348    -0.06300
C1779       C  0.68167560  0.12261819  0.09787835    -0.21400
C1780       C  0.67907836  0.13356846  0.07130440     0.24400
C1781       C  0.67520934  0.14707691  0.08431748    -0.18900
C1782       C  0.67300138  0.14894047  0.12289350    -0.08900
C1783       C  0.67945736  0.13024608  0.03007216    -0.19200
C1784       C  0.66679326  0.13036520  0.00695464    -0.24000
C1785       C  0.66521271  0.12638162  0.96584089     0.26400
C1786       C  0.64762632  0.11841860  0.94972441    -0.20700
C1787       C  0.64532462  0.11626113  0.91072665    -0.10400
C1788       C  0.66062863  0.12237504  0.88650497    -0.10900
C1789       C  0.67831754  0.12994344  0.90256981    -0.03800
C1790       C  0.68059327  0.13181352  0.94207531    -0.19000
H1791       H  0.68077627  0.11533691  0.15651170     0.10100
H1792       H  0.68480768  0.11221347  0.08850674     0.10200
H1793       H  0.67361703  0.15606139  0.06454429     0.09900
H1794       H  0.66961856  0.15923659  0.13174054     0.11000
H1795       H  0.68906231  0.12626977  0.01932236     0.11100
H1796       H  0.65612929  0.13245143  0.01929990     0.13000
H1797       H  0.63558421  0.11417926  0.96740408     0.09500
H1798       H  0.63149128  0.11041360  0.89950789     0.11600
H1799       H  0.69036612  0.13480929  0.88463274     0.08200
H1800       H  0.69437003  0.13825440  0.95379178     0.10900
C1801       C  0.67199096  0.12829025  0.38591529    -0.03700
C1802       C  0.66036156  0.11487496  0.41229555    -0.06300
C1803       C  0.66499387  0.11675678  0.45061447    -0.21400
C1804       C  0.68137270  0.13220268  0.46350717     0.24400
C1805       C  0.69315535  0.14546720  0.43699871    -0.18900
C1806       C  0.68861131  0.14345441  0.39849798    -0.08900
C1807       C  0.68539639  0.13591167  0.50455516    -0.19200
C1808       C  0.67805661  0.12265712  0.53144389    -0.24000
C1809       C  0.67858407  0.12671354  0.57253503     0.26400
C1810       C  0.67529451  0.11287530  0.59912249    -0.20700
C1811       C  0.67327669  0.11541538  0.63765150    -0.10400
C1812       C  0.67426334  0.13178102  0.65021351    -0.10900
C1813       C  0.67808429  0.14580959  0.62373104    -0.03800
C1814       C  0.68018917  0.14332232  0.58541695    -0.19000
H1815       H  0.64741073  0.10309366  0.40341092     0.10100
H1816       H  0.65523935  0.10652315  0.47012992     0.10200
H1817       H  0.70570581  0.15763300  0.44623375     0.09900
H1818       H  0.69771862  0.15412813  0.37882875     0.11000
H1819       H  0.69425895  0.15021742  0.51281545     0.11100
H1820       H  0.67074835  0.10822497  0.52317586     0.13000
H1821       H  0.67379489  0.09987134  0.58991373     0.09500
H1822       H  0.67025692  0.10431420  0.65734219     0.11600
H1823       H  0.67888501  0.15857247  0.63242578     0.08200
H1824       H  0.68213594  0.15411846  0.56590363     0.10900
C1825       C  0.46142661  0.18223266  0.50680451    -0.03700
C1826       C  0.44469439  0.18214395  0.50367232    -0.06300
C1827       C  0.44384830  0.19806967  0.51169271    -0.21400
C1828       C  0.45958908  0.21436757  0.52380649     0.24400
C1829       C  0.47651020  0.21467980  0.52540339    -0.18900
C1830       C  0.47739744  0.19881584  0.51694264    -0.08900
C1831       C  0.45777525  0.23066877  0.53419927    -0.19200
C1832       C  0.46949890  0.24427517  0.55766328    -0.24000
C1833       C  0.46790926  0.26069036  0.56809230     0.26400
C1834       C  0.48377434  0.27677138  0.58055879    -0.20700
C1835       C  0.48319773  0.29275318  0.58938848    -0.10400
C1836       C  0.46661448  0.29296981  0.58667639    -0.10900
C1837       C  0.45053255  0.27664333  0.57572945    -0.03800
C1838       C  0.45115254  0.26069886  0.56648305    -0.19000
H1839       H  0.43213499  0.16960699  0.49596351     0.10100
H1840       H  0.43068461  0.19746528  0.50961861     0.10200
H1841       H  0.48911758  0.22708905  0.53324232     0.09900
H1842       H  0.49050044  0.19935359  0.51979134     0.11000
H1843       H  0.44606859  0.23114232  0.52257120     0.11100
H1844       H  0.48114899  0.24372788  0.56937696     0.13000
H1845       H  0.49682892  0.27713876  0.58250918     0.09500
H1846       H  0.49584856  0.30507928  0.59756766     0.11600
H1847       H  0.43753635  0.27634621  0.57312835     0.08200
H1848       H  0.43847843  0.24846880  0.55818370     0.10900
C1849       C  0.62337409  0.15934388  0.33369894    -0.03700
C1850       C  0.61986088  0.15532884  0.37250142    -0.06300
C1851       C  0.60740040  0.15886338  0.39175019    -0.21400
C1852       C  0.59788436  0.16622635  0.37267641     0.24400
C1853       C  0.60221737  0.17131705  0.33436334    -0.18900
C1854       C  0.61486122  0.16793755  0.31512979    -0.08900
C1855       C  0.58307457  0.16755462  0.39343031    -0.19200
C1856       C  0.56820036  0.16649072  0.37627962    -0.24000
C1857       C  0.55159511  0.16394193  0.39721790     0.26400
C1858       C  0.53434633  0.15433689  0.37933424    -0.20700
C1859       C  0.51811817  0.14980796  0.39898902    -0.10400
C1860       C  0.51871533  0.15506484  0.43695793    -0.10900
C1861       C  0.53606269  0.16577506  0.45418069    -0.03800
C1862       C  0.55234487  0.17012708  0.43458441    -0.19000
H1863       H  0.62619679  0.14874398  0.38771704     0.10100
H1864       H  0.60453557  0.15499776  0.42131459     0.10200
H1865       H  0.59562659  0.17756789  0.31895027     0.09900
H1866       H  0.61724522  0.17119196  0.28524421     0.11000
H1867       H  0.58337748  0.16714944  0.42411749     0.11100
H1868       H  0.56709133  0.16517421  0.34571117     0.13000
H1869       H  0.53332774  0.14955664  0.35049635     0.09500
H1870       H  0.50501372  0.14157360  0.38481927     0.11600
H1871       H  0.53700967  0.17000551  0.48341770     0.08200
H1872       H  0.56541848  0.17803214  0.44897760     0.10900
C1873       C  0.50278378  0.11647449  0.57031602    -0.03700
C1874       C  0.50663455  0.12294149  0.60773133    -0.06300
C1875       C  0.51812201  0.11942811  0.63026852    -0.21400
C1876       C  0.52616692  0.10960680  0.61574954     0.24400
C1877       C  0.52167546  0.10237431  0.57891747    -0.18900
C1878       C  0.51005355  0.10578693  0.55637650    -0.08900
C1879       C  0.53974059  0.10791818  0.63937424    -0.19200
C1880       C  0.55436564  0.10765866  0.62459266    -0.24000
C1881       C  0.56987345  0.10996221  0.64835879     0.26400
C1882       C  0.58775793  0.11919482  0.63314379    -0.20700
C1883       C  0.60295104  0.12347500  0.65599041    -0.10400
C1884       C  0.60045547  0.11838133  0.69438635    -0.10900
C1885       C  0.58246751  0.10823825  0.70905390    -0.03800
C1886       C  0.56730567  0.10401825  0.68625377    -0.19000
H1887       H  0.50108792  0.13107018  0.61939772     0.10100
H1888       H  0.52127982  0.12499419  0.65868828     0.10200
H1889       H  0.52724628  0.09425970  0.56736688     0.09900
H1890       H  0.50714787  0.10046566  0.52777115     0.11000
H1891       H  0.53895585  0.10940379  0.66972856     0.11100
H1892       H  0.55618082  0.10817687  0.59409402     0.13000
H1893       H  0.59003457  0.12374435  0.60390246     0.09500
H1894       H  0.61665493  0.13112919  0.64380821     0.11600
H1895       H  0.58010219  0.10391589  0.73842091     0.08200
H1896       H  0.55363937  0.09629899  0.69850584     0.10900
C1897       C  0.46471293  0.18046675  0.01030614    -0.03700
C1898       C  0.44766910  0.17985437  0.01014941    -0.06300
C1899       C  0.44669125  0.19569150  0.01798423    -0.21400
C1900       C  0.46264541  0.21248300  0.02679744     0.24400
C1901       C  0.47983157  0.21333725  0.02542618    -0.18900
C1902       C  0.48083356  0.19750014  0.01721191    -0.08900
C1903       C  0.46067963  0.22867412  0.03701079    -0.19200
C1904       C  0.47270969  0.24269098  0.05922824    -0.24000
C1905       C  0.47064182  0.25874519  0.07036157     0.26400
C1906       C  0.48630493  0.27493461  0.08299378    -0.20700
C1907       C  0.48530271  0.29060254  0.09243154    -0.10400
C1908       C  0.46852051  0.29046882  0.08983761    -0.10900
C1909       C  0.45263232  0.27402546  0.07879620    -0.03800
C1910       C  0.45364692  0.25832682  0.06923723    -0.19000
H1911       H  0.43497970  0.16698850  0.00492414     0.10100
H1912       H  0.43330495  0.19466719  0.01833044     0.10200
H1913       H  0.49252132  0.22615167  0.03074997     0.09900
H1914       H  0.49418934  0.19846388  0.01755397     0.11000
H1915       H  0.44846050  0.22855979  0.02672013     0.11100
H1916       H  0.48485743  0.24264729  0.06956019     0.13000
H1917       H  0.49953061  0.27564222  0.08462610     0.09500
H1918       H  0.49784443  0.30302493  0.10070151     0.11600
H1919       H  0.43949371  0.27344428  0.07642199     0.08200
H1920       H  0.44108035  0.24598473  0.06097646     0.10900
C1921       C  0.52122417  0.15567211  0.93212885    -0.03700
C1922       C  0.52054601  0.15205318  0.89319038    -0.06300
C1923       C  0.53678102  0.15758543  0.87260551    -0.21400
C1924       C  0.55410071  0.16661859  0.89044124     0.24400
C1925       C  0.55484807  0.17126132  0.92898811    -0.18900
C1926       C  0.53858731  0.16583700  0.94952823    -0.08900
C1927       C  0.57063832  0.16973489  0.86826231    -0.19200
C1928       C  0.58655497  0.17270219  0.88405796    -0.24000
C1929       C  0.60092485  0.17088945  0.86278898     0.26400
C1930       C  0.61125292  0.16464935  0.88253550    -0.20700
C1931       C  0.62263067  0.15970451  0.86317852    -0.10400
C1932       C  0.62431269  0.16130936  0.82362043    -0.10900
C1933       C  0.61536490  0.16918418  0.80408527    -0.03800
C1934       C  0.60368568  0.17386172  0.82345229    -0.19000
H1935       H  0.50740357  0.14431354  0.87889203     0.10100
H1936       H  0.53571111  0.15399324  0.84291945     0.10200
H1937       H  0.56784402  0.17871629  0.94376398     0.09900
H1938       H  0.53959232  0.16883058  0.97951809     0.11000
H1939       H  0.56873366  0.16720668  0.83803735     0.11100
H1940       H  0.58809425  0.17386940  0.91454181     0.13000
H1941       H  0.60963084  0.16247298  0.91285701     0.09500
H1942       H  0.62944963  0.15378364  0.87900104     0.11600
H1943       H  0.61641893  0.17057949  0.77356595     0.08200
H1944       H  0.59643766  0.17923075  0.80742134     0.10900
C1945       C  0.50777918  0.11345510  0.05812327    -0.03700
C1946       C  0.51597824  0.10474505  0.03899297    -0.06300
C1947       C  0.52836771  0.10098743  0.05766880    -0.21400
C1948       C  0.53257632  0.10557826  0.09591084     0.24400
C1949       C  0.52387856  0.11373816  0.11541373    -0.18900
C1950       C  0.51159379  0.11761492  0.09667202    -0.08900
C1951       C  0.54763432  0.10376285  0.11328401    -0.19200
C1952       C  0.54952423  0.10293110  0.15089240    -0.24000
C1953       C  0.56663874  0.10561022  0.16891591     0.26400
C1954       C  0.56594065  0.10034916  0.20686701    -0.20700
C1955       C  0.58215776  0.10528366  0.22670150    -0.10400
C1956       C  0.59941355  0.11577364  0.20899056    -0.10900
C1957       C  0.60009392  0.12032307  0.17053808    -0.03800
C1958       C  0.58389941  0.11534815  0.15069151    -0.19000
H1959       H  0.51334812  0.10143823  0.00921466     0.10100
H1960       H  0.53504151  0.09489561  0.04195179     0.10200
H1961       H  0.52717141  0.11800929  0.14458451     0.09900
H1962       H  0.50549131  0.12435857  0.11211170     0.11000
H1963       H  0.55780001  0.10376892  0.09429784     0.11100
H1964       H  0.53842411  0.10104148  0.16956139     0.13000
H1965       H  0.55284284  0.09296170  0.22159674     0.09500
H1966       H  0.58120042  0.10154957  0.25632028     0.11600
H1967       H  0.61319794  0.12837383  0.15610546     0.08200
H1968       H  0.58514393  0.12010916  0.12180092     0.10900
C1969       C  0.43963213  0.11569859  0.88653162    -0.03700
C1970       C  0.43651979  0.10059793  0.86402088    -0.06300
C1971       C  0.43322342  0.10041772  0.82525309    -0.21400
C1972       C  0.43330657  0.11547499  0.80767243     0.24400
C1973       C  0.43558033  0.13029598  0.83046207    -0.18900
C1974       C  0.43864504  0.13034996  0.86960256    -0.08900
C1975       C  0.43166763  0.11525489  0.76553486    -0.19200
C1976       C  0.43854972  0.13067439  0.74408495    -0.24000
C1977       C  0.44018115  0.13084376  0.70192140     0.26400
C1978       C  0.45334559  0.14733977  0.68437730    -0.20700
C1979       C  0.45642881  0.14811996  0.64538377    -0.10400
C1980       C  0.44621290  0.13247134  0.62258387    -0.10900
C1981       C  0.43250122  0.11607236  0.63971712    -0.03800
C1982       C  0.42951901  0.11522919  0.67901029    -0.19000
H1983       H  0.43707116  0.08903727  0.87630942     0.10100
H1984       H  0.43132708  0.08873931  0.80865742     0.10200
H1985       H  0.43520662  0.14193416  0.81822629     0.09900
H1986       H  0.44101819  0.14217245  0.88629096     0.11000
H1987       H  0.42647633  0.10200495  0.75173615     0.11100
H1988       H  0.44506120  0.14400609  0.75801577     0.13000
H1989       H  0.46167372  0.15961646  0.70108296     0.09500
H1990       H  0.46701730  0.16101459  0.63311300     0.11600
H1991       H  0.42438827  0.10378458  0.62289218     0.08200
H1992       H  0.41889515  0.10235814  0.69114806     0.10900
C1993       C  0.43831110  0.11572667  0.38692507    -0.03700
C1994       C  0.43232945  0.12724740  0.37129912    -0.06300
C1995       C  0.42961601  0.12736183  0.33208532    -0.21400
C1996       C  0.43305437  0.11615104  0.30789940     0.24400
C1997       C  0.43799805  0.10390629  0.32380891    -0.18900
C1998       C  0.44058368  0.10369664  0.36276971    -0.08900
C1999       C  0.43245065  0.11800102  0.26611233    -0.19200
C2000       C  0.44547678  0.11804281  0.24380181    -0.24000
C2001       C  0.44703928  0.12177305  0.20255252     0.26400
C2002       C  0.46467886  0.13289074  0.18718342    -0.20700
C2003       C  0.46711919  0.13589629  0.14826257    -0.10400
C2004       C  0.45199818  0.12742201  0.12346487    -0.10900
C2005       C  0.43423301  0.11618790  0.13877040    -0.03800
C2006       C  0.43173849  0.11354754  0.17813995    -0.19000
H2007       H  0.43040909  0.13662945  0.38914057     0.10100
H2008       H  0.42565408  0.13681365  0.32045508     0.10200
H2009       H  0.44023236  0.09472201  0.30599196     0.09900
H2010       H  0.44488969  0.09441248  0.37384277     0.11000
H2011       H  0.42243070  0.12110906  0.25402130     0.11100
H2012       H  0.45663735  0.11701525  0.25689668     0.13000
H2013       H  0.47667267  0.13923624  0.20543337     0.09500
H2014       H  0.48101314  0.14446489  0.13749646     0.11600
H2015       H  0.42234908  0.10938499  0.12035210     0.08200
H2016       H  0.41801024  0.10462666  0.18936805     0.10900
C2017       C  0.28839197  0.81875478  0.00730429    -0.03700
C2018       C  0.27164648  0.81844647  0.01256075    -0.06300
C2019       C  0.25478469  0.80232034  0.00553768    -0.21400
C2020       C  0.25429976  0.78628245  0.99239104     0.24400
C2021       C  0.27101805  0.78630746  0.98911470    -0.18900
C2022       C  0.28785353  0.80235780  0.99653850    -0.08900
C2023       C  0.23618430  0.76990388  0.98219845    -0.19200
C2024       C  0.23434637  0.75722191  0.95639312    -0.24000
C2025       C  0.21632198  0.74084223  0.94577613     0.26400
C2026       C  0.21610283  0.72507853  0.93169614    -0.20700
C2027       C  0.19940929  0.70904219  0.92318131    -0.10400
C2028       C  0.18253503  0.70852435  0.92790977    -0.10900
C2029       C  0.18282166  0.72463572  0.94008583    -0.03800
C2030       C  0.19950114  0.74060508  0.94897460    -0.19000
H2031       H  0.27159175  0.83080999  0.02117019     0.10100
H2032       H  0.24210489  0.80258406  0.00901551     0.10200
H2033       H  0.27120901  0.77402612  0.98060855     0.09900
H2034       H  0.30050336  0.80209439  0.99246113     0.11000
H2035       H  0.22399496  0.76866914  0.99565635     0.11100
H2036       H  0.24655680  0.75853621  0.94288093     0.13000
H2037       H  0.22887457  0.72497164  0.92840839     0.09500
H2038       H  0.19969502  0.69689749  0.91383381     0.11600
H2039       H  0.17007995  0.72473727  0.94397447     0.08200
H2040       H  0.19911314  0.75267054  0.95836658     0.10900
C2041       C  0.36659910  0.93430537  0.01965503    -0.03700
C2042       C  0.38474293  0.94442691  0.00582239    -0.06300
C2043       C  0.39364832  0.96359316  0.00244114    -0.21400
C2044       C  0.38483680  0.97331435  0.01325240     0.24400
C2045       C  0.36651931  0.96322117  0.02674183    -0.18900
C2046       C  0.35744878  0.94383776  0.02969123    -0.08900
C2047       C  0.39557019  0.99384145  0.00944061    -0.19200
C2048       C  0.39123452  0.00578901  0.02534373    -0.24000
C2049       C  0.40360620  0.02622608  0.02181724     0.26400
C2050       C  0.39613592  0.03791692  0.02244892    -0.20700
C2051       C  0.40751575  0.05708156  0.01729684    -0.10400
C2052       C  0.42664146  0.06492983  0.01188690    -0.10900
C2053       C  0.43415392  0.05328214  0.01310964    -0.03800
C2054       C  0.42284413  0.03424778  0.01815719    -0.19000
H2055       H  0.39214697  0.93749575  0.99761543     0.10100
H2056       H  0.40767550  0.97090165  0.99176837     0.10200
H2057       H  0.35910853  0.97011856  0.03483560     0.09900
H2058       H  0.34347052  0.93635946  0.04054707     0.11000
H2059       H  0.40817264  0.99942947  0.99290132     0.11100
H2060       H  0.37839752  0.00070307  0.04077310     0.13000
H2061       H  0.38141709  0.03215869  0.02596630     0.09500
H2062       H  0.40131867  0.06569649  0.01698252     0.11600
H2063       H  0.44885227  0.05884344  0.00972606     0.08200
H2064       H  0.42930287  0.02589732  0.01936363     0.10900
C2065       C  0.37139922  0.84307413  0.07692940    -0.03700
C2066       C  0.37781471  0.83326137  0.05571413    -0.06300
C2067       C  0.39151110  0.83012419  0.07023226    -0.21400
C2068       C  0.39885691  0.83644104  0.10642073     0.24400
C2069       C  0.39150753  0.84512223  0.12861788    -0.18900
C2070       C  0.37790561  0.84833754  0.11405964    -0.08900
C2071       C  0.41557882  0.83590744  0.11838640    -0.19200
C2072       C  0.42028996  0.83622157  0.15492005    -0.24000
C2073       C  0.43847475  0.83915141  0.16757829     0.26400
C2074       C  0.44005701  0.83399172  0.20457209    -0.20700
C2075       C  0.45734099  0.83908542  0.21983604    -0.10400
C2076       C  0.47350862  0.84975973  0.19860557    -0.10900
C2077       C  0.47189430  0.85417007  0.16090223    -0.03800
C2078       C  0.45456918  0.84890879  0.14549123    -0.19000
H2079       H  0.37320821  0.82913227  0.02690030     0.10100
H2080       H  0.39696143  0.82346312  0.05250248     0.10200
H2081       H  0.39706909  0.85060267  0.15626318     0.09900
H2082       H  0.37340624  0.85607719  0.13103400     0.11000
H2083       H  0.42445334  0.83570252  0.09626726     0.11100
H2084       H  0.41054511  0.83465334  0.17687737     0.13000
H2085       H  0.42791678  0.82660062  0.22227460     0.09500
H2086       H  0.45809194  0.83562129  0.24907136     0.11600
H2087       H  0.48409874  0.86250959  0.14389851     0.08200
H2088       H  0.45400543  0.85351513  0.11716542     0.10900
C2089       C  0.49292784  0.89333789  0.81571960    -0.03700
C2090       C  0.48601222  0.90377734  0.79874797    -0.06300
C2091       C  0.47398242  0.90764676  0.81857005    -0.21400
C2092       C  0.46880303  0.90138312  0.85584183     0.24400
C2093       C  0.47651238  0.89178675  0.87355116    -0.18900
C2094       C  0.48848350  0.88784134  0.85365487    -0.08900
C2095       C  0.45356199  0.90285889  0.87335229    -0.19200
C2096       C  0.45023590  0.90140759  0.91076690    -0.24000
C2097       C  0.43273644  0.89862512  0.92695950     0.26400
C2098       C  0.43242704  0.90361910  0.96464388    -0.20700
C2099       C  0.41573202  0.89899628  0.98221445    -0.10400
C2100       C  0.39897650  0.88901817  0.96253252    -0.10900
C2101       C  0.39933447  0.88452288  0.92443212    -0.03800
C2102       C  0.41603433  0.88923733  0.90681460    -0.19000
H2103       H  0.48924183  0.90827994  0.76957531     0.10100
H2104       H  0.46816667  0.91497440  0.80426892     0.10200
H2105       H  0.47255007  0.88633932  0.90193151     0.09900
H2106       H  0.49363823  0.87981364  0.86750715     0.11000
H2107       H  0.44427215  0.90442736  0.85438427     0.11100
H2108       H  0.46034542  0.90168540  0.93028271     0.13000
H2109       H  0.44508898  0.91070884  0.98079636     0.09500
H2110       H  0.41591056  0.90267719  0.01163305     0.11600
H2111       H  0.38665256  0.87676338  0.90859686     0.08200
H2112       H  0.41566648  0.88466313  0.87806210     0.10900
C2113       C  0.18032678  0.70934246  0.42562486    -0.03700
C2114       C  0.19703768  0.70943660  0.42171376    -0.06300
C2115       C  0.21386088  0.72525264  0.43048416    -0.21400
C2116       C  0.21440311  0.74127649  0.44387451     0.24400
C2117       C  0.19777006  0.74151500  0.44589301    -0.18900
C2118       C  0.18093974  0.72572184  0.43686676    -0.08900
C2119       C  0.23255421  0.75738128  0.45514718    -0.19200
C2120       C  0.23438721  0.77044009  0.47995523    -0.24000
C2121       C  0.25248519  0.78672168  0.49083059     0.26400
C2122       C  0.25283952  0.80272487  0.50375121    -0.20700
C2123       C  0.26958355  0.81877065  0.51184862    -0.10400
C2124       C  0.28640729  0.81911463  0.50784217    -0.10900
C2125       C  0.28600168  0.80275670  0.49716174    -0.03800
C2126       C  0.26924343  0.78673949  0.48867728    -0.19000
H2127       H  0.19708306  0.69707176  0.41308096     0.10100
H2128       H  0.22645592  0.72475058  0.42803949     0.10200
H2129       H  0.19761975  0.75378866  0.45460983     0.09900
H2130       H  0.16833251  0.72614495  0.44010049     0.11000
H2131       H  0.24479745  0.75817359  0.44301918     0.11100
H2132       H  0.22213980  0.76961995  0.49211885     0.13000
H2133       H  0.24014417  0.80303263  0.50628238     0.09500
H2134       H  0.26938364  0.83109519  0.52015068     0.11600
H2135       H  0.29870889  0.80252865  0.49386749     0.08200
H2136       H  0.26953604  0.77450297  0.48023346     0.10900
C2137       C  0.36286144  0.93561542  0.51399291    -0.03700
C2138       C  0.38122951  0.94628482  0.50160783    -0.06300
C2139       C  0.38994555  0.96547757  0.49990017    -0.21400
C2140       C  0.38070707  0.97477973  0.51062653     0.24400
C2141       C  0.36203178  0.96416630  0.52184744    -0.18900
C2142       C  0.35317208  0.94471384  0.52335963    -0.08900
C2143       C  0.39163573  0.99542905  0.51001022    -0.19200
C2144       C  0.38603059  0.00700582  0.52249030    -0.24000
C2145       C  0.39858609  0.02750340  0.52159345     0.26400
C2146       C  0.39133076  0.03915229  0.51540415    -0.20700
C2147       C  0.40306679  0.05834657  0.51185411    -0.10400
C2148       C  0.42231783  0.06630022  0.51483435    -0.10900
C2149       C  0.42946313  0.05470490  0.52300441    -0.03800
C2150       C  0.41777411  0.03559886  0.52652069    -0.19000
H2151       H  0.38909966  0.93979827  0.49376127     0.10100
H2152       H  0.40423324  0.97313728  0.49083274     0.10200
H2153       H  0.35428030  0.97071427  0.52991712     0.09900
H2154       H  0.33898763  0.93686280  0.53292545     0.11000
H2155       H  0.40551314  0.00152462  0.49854670     0.11100
H2156       H  0.37197740  0.00162416  0.53222468     0.13000
H2157       H  0.37659758  0.03333246  0.51209212     0.09500
H2158       H  0.39710103  0.06689254  0.50582009     0.11600
H2159       H  0.44418361  0.06036550  0.52614056     0.08200
H2160       H  0.42384855  0.02719764  0.53298662     0.10900
C2161       C  0.37368282  0.84730313  0.56660033    -0.03700
C2162       C  0.38237257  0.84065243  0.54255979    -0.06300
C2163       C  0.39651773  0.83796368  0.55605777    -0.21400
C2164       C  0.40206899  0.84146941  0.59405011     0.24400
C2165       C  0.39276036  0.84727912  0.61859053    -0.18900
C2166       C  0.37878647  0.85022993  0.60494720    -0.08900
C2167       C  0.41883209  0.84095169  0.60604259    -0.19200
C2168       C  0.42224009  0.83850167  0.64223966    -0.24000
C2169       C  0.44019496  0.84108067  0.65607439     0.26400
C2170       C  0.44093618  0.83504042  0.69279319    -0.20700
C2171       C  0.45785089  0.83977989  0.70954951    -0.10400
C2172       C  0.47451548  0.85085902  0.69007894    -0.10900
C2173       C  0.47376732  0.85601078  0.65252557    -0.03800
C2174       C  0.45682228  0.85118769  0.63566058    -0.19000
H2175       H  0.37906155  0.83863538  0.51269790     0.10100
H2176       H  0.40356296  0.83369640  0.53643455     0.10200
H2177       H  0.39693250  0.85062925  0.64780525     0.09900
H2178       H  0.37257247  0.85564053  0.62403433     0.11000
H2179       H  0.42870905  0.84290047  0.58412102     0.11100
H2180       H  0.41151853  0.83492445  0.66328118     0.13000
H2181       H  0.42841281  0.82728251  0.70925937     0.09500
H2182       H  0.45789995  0.83564990  0.73859297     0.11600
H2183       H  0.48635350  0.86459389  0.63678568     0.08200
H2184       H  0.45703363  0.85639697  0.60755869     0.10900
C2185       C  0.32678634  0.87967311  0.63419402    -0.03700
C2186       C  0.30950662  0.86567064  0.64735407    -0.06300
C2187       C  0.30560091  0.86349700  0.68618640    -0.21400
C2188       C  0.31870528  0.87552747  0.71242085     0.24400
C2189       C  0.33573755  0.88991933  0.69905938    -0.18900
C2190       C  0.33973457  0.89191721  0.66040572    -0.08900
C2191       C  0.31521360  0.87160035  0.75351395    -0.19200
C2192       C  0.32315450  0.88477177  0.78019725    -0.24000
C2193       C  0.32267046  0.88047809  0.82109170     0.26400
C2194       C  0.32448371  0.89355671  0.84809194    -0.20700
C2195       C  0.32592629  0.89059381  0.88666785    -0.10400
C2196       C  0.32593344  0.87462578  0.89881568    -0.10900
C2197       C  0.32391786  0.86147010  0.87173473    -0.03800
C2198       C  0.32229199  0.86433827  0.83337033    -0.19000
H2199       H  0.29931176  0.85594758  0.62779395     0.10100
H2200       H  0.29246981  0.85217345  0.69583637     0.10200
H2201       H  0.34637342  0.89912535  0.71846333     0.09900
H2202       H  0.35317808  0.90281264  0.65109970     0.11000
H2203       H  0.30618928  0.85731081  0.76199317     0.11100
H2204       H  0.33065770  0.89922821  0.77185193     0.13000
H2205       H  0.32504321  0.90620716  0.83924048     0.09500
H2206       H  0.32754140  0.90101623  0.90682550     0.11600
H2207       H  0.32396069  0.84905478  0.88008647     0.08200
H2208       H  0.32151064  0.85423668  0.81330491     0.10900
C2209       C  0.32488152  0.87831787  0.13543553    -0.03700
C2210       C  0.30685200  0.86511276  0.14649458    -0.06300
C2211       C  0.30157407  0.86340311  0.18459466    -0.21400
C2212       C  0.31408494  0.87509213  0.21209121     0.24400
C2213       C  0.33191482  0.88870770  0.20065711    -0.18900
C2214       C  0.33722947  0.89026174  0.16282168    -0.08900
C2215       C  0.30912584  0.87138419  0.25279438    -0.19200
C2216       C  0.31746683  0.88432697  0.27978056    -0.24000
C2217       C  0.31634708  0.87993493  0.32075981     0.26400
C2218       C  0.32086796  0.89404604  0.34724898    -0.20700
C2219       C  0.32249746  0.89110326  0.38569379    -0.10400
C2220       C  0.31995732  0.87406495  0.39824082    -0.10900
C2221       C  0.31497722  0.85979461  0.37189105    -0.03800
C2222       C  0.31315557  0.86266327  0.33359601    -0.19000
H2223       H  0.29708477  0.85565059  0.12598532     0.10100
H2224       H  0.28784511  0.85265048  0.19276462     0.10200
H2225       H  0.34215589  0.89759677  0.22103967     0.09900
H2226       H  0.35122316  0.90057184  0.15515138     0.11000
H2227       H  0.29892918  0.85734107  0.26076820     0.11100
H2228       H  0.32622385  0.89869585  0.27158694     0.13000
H2229       H  0.32363835  0.90754191  0.33801763     0.09500
H2230       H  0.32648381  0.90239449  0.40533522     0.11600
H2231       H  0.31297661  0.84652149  0.38071928     0.08200
H2232       H  0.31020165  0.85161321  0.31401792     0.10900
C2233       C  0.49257304  0.89229579  0.32390543    -0.03700
C2234       C  0.48970977  0.88715182  0.36227009    -0.06300
C2235       C  0.47830272  0.89091830  0.38464260    -0.21400
C2236       C  0.46934482  0.89968995  0.36910080     0.24400
C2237       C  0.47292074  0.90568698  0.33120525    -0.18900
C2238       C  0.48441418  0.90199248  0.30882673    -0.08900
C2239       C  0.45575301  0.90146943  0.39283708    -0.19200
C2240       C  0.44087237  0.90132846  0.37826502    -0.24000
C2241       C  0.42518263  0.89890720  0.40189394     0.26400
C2242       C  0.40753143  0.89034530  0.38572311    -0.20700
C2243       C  0.39205555  0.88589446  0.40786333    -0.10400
C2244       C  0.39395132  0.89010874  0.44663822    -0.10900
C2245       C  0.41171911  0.89965516  0.46240532    -0.03800
C2246       C  0.42721131  0.90405681  0.44024857    -0.19000
H2247       H  0.49593230  0.87981338  0.37483011     0.10100
H2248       H  0.47591077  0.88632036  0.41385466     0.10200
H2249       H  0.46673903  0.91304661  0.31863512     0.09900
H2250       H  0.48653863  0.90633173  0.27946902     0.11000
H2251       H  0.45680896  0.90041714  0.42324857     0.11100
H2252       H  0.43895434  0.90057149  0.34780528     0.13000
H2253       H  0.40561590  0.88641265  0.35616273     0.09500
H2254       H  0.37855727  0.87870049  0.39479656     0.11600
H2255       H  0.41362564  0.90325848  0.49212861     0.08200
H2256       H  0.44066815  0.91126345  0.45338486     0.10900
loop_ 
_geom_bond_atom_site_label_1 
_geom_bond_atom_site_label_2 
_geom_bond_distance 
_geom_bond_site_symmetry_2 
_ccdc_geom_bond_type 
O1           C16   1.260       .  A
O1           Al9   1.887       .  S
C2           O12   1.262       .  A
C2            O3   1.266       .  A
C2         C2185   1.478       .  S
O3           Al5   1.920       .  S
O4            C6   1.259       .  A
O4           Al5   1.896       .  S
Al5          O13   1.874       .  S
Al5          O15   1.925       .  S
Al5          O14   1.774       .  S
C6           O19   1.266       .  A
C6         C2161   1.485       .  S
O7           C17   1.265       .  A
O7           Al9   1.901       .  S
O8           C21   1.263       .  A
O8          Al18   1.901       .  S
Al9          O22   1.921       .  S
Al9          O19   1.934       .  S
Al9          O14   1.780       .  S
O10          C17   1.269       .  A
O10         Al18   1.937       .  S
O11          C20   1.267       .  A
O11         Al18   1.955       .  S
O12         Al18   1.898       .  S
O13          C20   1.256       .  A
O14         Al18   1.782       .  S
O15          C16   1.266       .  A
C16        C2244   1.477       .  S
C17        C2124   1.486       .  S
C20        C2137   1.488       .  S
C21          O22   1.265       .  A
C21        C2220   1.478       .  S
O23          C38   1.262       .  A
O23         Al31   1.896       .  S
C24          O34   1.261       .  A
C24          O25   1.263       .  A
C24        C2209   1.478       .  S
O25         Al27   1.911       .  S
O26          C28   1.260       .  A
O26         Al27   1.894       .  S
Al27         O35   1.874       .  S
Al27         O37   1.915       .  S
Al27         O36   1.775       .  S
C28          O41   1.265       .  A
C28        C2065   1.483       .  S
O29          C39   1.264       .  A
O29         Al31   1.895   1_554  S
O30          C43   1.263       .  A
O30         Al40   1.907   1_556  S
Al31         O44   1.913       .  S
Al31         O41   1.930   1_556  S
Al31         O36   1.781   1_556  S
O32          C39   1.269       .  A
O32         Al40   1.933       .  S
O33          C42   1.268       .  A
O33         Al40   1.949       .  S
O34         Al40   1.902       .  S
O35          C42   1.257       .  A
O36         Al40   1.783       .  S
O37          C38   1.264   1_554  A
C38        C2100   1.477       .  S
C39        C2017   1.484       .  S
C42        C2041   1.482       .  S
C43          O44   1.263       .  A
C43        C2196   1.481       .  S
O45          C60   1.258       .  A
O45         Al53   1.890       .  S
C46          O56   1.266       .  A
C46          O47   1.263       .  A
C46        C1969   1.483       .  S
O47         Al49   1.910       .  S
O48          C50   1.262       .  A
O48         Al49   1.898       .  S
Al49         O57   1.886       .  S
Al49         O59   1.911   1_556  S
Al49         O58   1.779   1_556  S
C50          O63   1.267       .  A
C50        C1921   1.486       .  S
O51          C61   1.263       .  A
O51         Al53   1.904       .  S
O52          C65   1.265       .  A
O52         Al62   1.916       .  S
Al53         O66   1.912       .  S
Al53         O63   1.934   1_554  S
Al53         O58   1.781       .  S
O54          C61   1.266       .  A
O54         Al62   1.925       .  S
O55          C64   1.267       .  A
O55         Al62   1.942       .  S
O56         Al62   1.925   1_556  S
O57          C64   1.259   1_556  A
O58         Al62   1.785       .  S
O59          C60   1.261       .  A
C60        C1945   1.475       .  S
C61        C1897   1.487       .  S
C64        C2052   1.487       .  S
C65          O66   1.265       .  A
C65        C2004   1.485       .  S
O67          C82   1.257       .  A
O67         Al75   1.876       .  S
C68          O78   1.267       .  A
C68          O69   1.266       .  A
C68        C1993   1.486       .  S
O69         Al71   1.915       .  S
O70          C72   1.260       .  A
O70         Al71   1.892       .  S
Al71         O79   1.891       .  S
Al71         O81   1.918       .  S
Al71         O80   1.777       .  S
C72          O85   1.267       .  A
C72        C1860   1.488       .  S
O73          C83   1.263       .  A
O73         Al75   1.901       .  S
O74          C87   1.266       .  A
O74         Al84   1.917       .  S
Al75         O88   1.925       .  S
Al75         O85   1.944       .  S
Al75         O80   1.781       .  S
O76          C83   1.267       .  A
O76         Al84   1.934       .  S
O77          C86   1.266       .  A
O77         Al84   1.940       .  S
O78         Al84   1.918       .  S
O79          C86   1.259       .  A
O80         Al84   1.783       .  S
O81          C82   1.263       .  A
C82        C1873   1.473       .  S
C83        C1825   1.488       .  S
C86        C2148   1.488       .  S
C87          O88   1.267       .  A
C87        C1980   1.486       .  S
O89         C104   1.260       .  A
O89         Al97   1.886       .  S
C90         O100   1.262       .  A
C90          O91   1.264       .  A
C90        C1801   1.478       .  S
O91         Al93   1.916       .  S
O92          C94   1.259       .  A
O92         Al93   1.892       .  S
Al93        O101   1.879       .  S
Al93        O103   1.919       .  S
Al93        O102   1.777       .  S
C94         O107   1.267       .  A
C94        C1849   1.488       .  S
O95         C105   1.264       .  A
O95         Al97   1.904       .  S
O96         C109   1.264       .  A
O96        Al106   1.906       .  S
Al97        O110   1.924       .  S
Al97        O107   1.944       .  S
Al97        O102   1.780       .  S
O98         C105   1.267       .  A
O98        Al106   1.925       .  S
O99         C108   1.267       .  A
O99        Al106   1.947       .  S
O100       Al106   1.903       .  S
O101        C108   1.258       .  A
O102       Al106   1.782       .  S
O103        C104   1.264       .  A
C104       C1956   1.476       .  S
C105       C1740   1.485       .  S
C108       C1764   1.489       .  S
C109        O110   1.266       .  A
C109       C1777   1.485       .  S
O111        C126   1.258       .  A
O111       Al119   1.887       .  S
C112        O122   1.266       .  A
C112        O113   1.265       .  A
C112       C1788   1.484       .  S
O113       Al115   1.910       .  S
O114        C116   1.260       .  A
O114       Al115   1.889       .  S
Al115       O123   1.886       .  S
Al115       O125   1.911       .  S
Al115       O124   1.770       .  S
C116        O129   1.268       .  A
C116       C1932   1.482       .  S
O117        C127   1.262       .  A
O117       Al119   1.895       .  S
O118        C131   1.265       .  A
O118       Al128   1.908       .  S
Al119       O132   1.920       .  S
Al119       O129   1.945       .  S
Al119       O124   1.779       .  S
O120        C127   1.265       .  A
O120       Al128   1.922       .  S
O121        C130   1.266       .  A
O121       Al128   1.938       .  S
O122       Al128   1.917       .  S
O123        C130   1.259       .  A
O124       Al128   1.783       .  S
O125        C126   1.262       .  A
C126       C1884   1.474       .  S
C127       C1681   1.481       .  S
C130       C1705   1.479       .  S
C131        O132   1.267       .  A
C131       C1812   1.482       .  S
O133        C148   1.260       .  A
O133       Al141   1.890       .  S
C134        O144   1.266       .  A
C134        O135   1.265       .  A
C134       C1668   1.486       .  S
O135       Al137   1.918       .  S
O136        C138   1.259       .  A
O136       Al137   1.893       .  S
Al137       O145   1.873       .  S
Al137       O147   1.925       .  S
Al137       O146   1.775       .  S
C138        O151   1.266       .  A
C138       C2076   1.483       .  S
O139        C149   1.263       .  A
O139       Al141   1.893       .  S
O140        C153   1.266       .  A
O140       Al150   1.921       .  S
Al141       O154   1.920       .  S
Al141       O151   1.933       .  S
Al141       O146   1.776       .  S
O142        C149   1.271       .  A
O142       Al150   1.957       .  S
O143        C152   1.270       .  A
O143       Al150   1.963       .  S
O144       Al150   1.921       .  S
O145        C152   1.257       .  A
O146       Al150   1.783       .  S
O147        C148   1.265       .  A
C148       C2233   1.479       .  S
C149       C1620   1.493       .  S
C152       C1753   1.489       .  S
C153        O154   1.265       .  A
C153       C1633   1.485       .  S
O155        C170   1.260       .  A
O155       Al163   1.895       .  S
C156        O166   1.267       .  A
C156        O157   1.263       .  A
C156       C1644   1.487       .  S
O157       Al159   1.908       .  S
O158        C160   1.261       .  A
O158       Al159   1.900       .  S
Al159       O167   1.878       .  S
Al159       O169   1.914       .  S
Al159       O168   1.778       .  S
C160        O173   1.265       .  A
C160       C2172   1.486       .  S
O161        C171   1.263       .  A
O161       Al163   1.896       .  S
O162        C175   1.266       .  A
O162       Al172   1.927       .  S
Al163       O176   1.911       .  S
Al163       O173   1.928       .  S
Al163       O168   1.779       .  S
O164        C171   1.269       .  A
O164       Al172   1.941       .  S
O165        C174   1.267       .  A
O165       Al172   1.943       .  S
O166       Al172   1.929       .  S
O167        C174   1.258       .  A
O168       Al172   1.785       .  S
O169        C170   1.262       .  A
C170       C2089   1.477       .  S
C171       C1596   1.490       .  S
C174       C1716   1.482       .  S
C175        O176   1.263       .  A
C175       C1657   1.488       .  S
O177        C192   1.260       .  A
O177       Al185   1.886       .  S
C178        O188   1.263       .  A
C178        O179   1.265       .  A
C178       C1548   1.479       .  S
O179       Al181   1.920       .  S
O180        C182   1.259       .  A
O180       Al181   1.889       .  S
Al181       O189   1.878       .  S
Al181       O191   1.923       .  S
Al181       O190   1.772       .  S
C182        O195   1.266       .  A
C182       C1561   1.481       .  S
O183        C193   1.262       .  A
O183       Al185   1.892       .  S
O184        C197   1.265       .  A
O184       Al194   1.910       .  S
Al185       O198   1.921       .  S
Al185       O195   1.936       .  S
Al185       O190   1.776       .  S
O186        C193   1.269       .  A
O186       Al194   1.941       .  S
O187        C196   1.269       .  A
O187       Al194   1.958       .  S
O188       Al194   1.903       .  S
O189        C196   1.258       .  A
O190       Al194   1.780       .  S
O191        C192   1.265       .  A
C192       C1489   1.477       .  S
C193       C1441   1.485       .  S
C196       C1465   1.484       .  S
C197        O198   1.266       .  A
C197       C1524   1.477       .  S
O199        C214   1.259       .  A
O199       Al207   1.884       .  S
C200        O210   1.266       .  A
C200        O201   1.266       .  A
C200       C1513   1.476       .  S
O201       Al203   1.917       .  S
O202        C204   1.261       .  A
O202       Al203   1.895       .  S
Al203       O211   1.884       .  S
Al203       O213   1.920       .  S
Al203       O212   1.770       .  S
C204        O217   1.267       .  A
C204       C1417   1.486       .  S
O205        C215   1.261       .  A
O205       Al207   1.891       .  S
O206        C219   1.264       .  A
O206       Al216   1.904       .  S
Al207       O220   1.925       .  S
Al207       O217   1.935       .  S
Al207       O212   1.774       .  S
O208        C215   1.269       .  A
O208       Al216   1.948       .  S
O209        C218   1.268       .  A
O209       Al216   1.953       .  S
O210       Al216   1.913       .  S
O211        C218   1.259       .  A
O212       Al216   1.782       .  S
O213        C214   1.264       .  A
C214       C1393   1.475       .  S
C215       C1345   1.488       .  S
C218       C1369   1.485       .  S
C219        O220   1.267       .  A
C219       C1537   1.478       .  S
O221        C236   1.259       .  A
O221       Al229   1.885       .  S
C222        O232   1.265       .  A
C222        O223   1.265       .  A
C222       C1321   1.485       .  S
O223       Al225   1.919       .  S
O224        C226   1.260       .  A
O224       Al225   1.889       .  S
Al225       O233   1.879       .  S
Al225       O235   1.921       .  S
Al225       O234   1.773       .  S
C226        O239   1.267       .  A
C226       C1572   1.483       .  S
O227        C237   1.261       .  A
O227       Al229   1.890       .  S
O228        C241   1.265       .  A
O228       Al238   1.913       .  S
Al229       O242   1.924       .  S
Al229       O239   1.938       .  S
Al229       O234   1.773       .  S
O230        C237   1.270       .  A
O230       Al238   1.948       .  S
O231        C240   1.269       .  A
O231       Al238   1.959       .  S
O232       Al238   1.912       .  S
O233        C240   1.258       .  A
O234       Al238   1.782       .  S
O235        C236   1.264       .  A
C236       C1404   1.475       .  S
C237       C1908   1.488       .  S
C240       C1284   1.483       .  S
C241        O242   1.267       .  A
C241       C1297   1.483   1_554  S
O243        C258   1.259       .  A
O243       Al251   1.884       .  S
C244        O254   1.268       .  A
C244        O245   1.267       .  A
C244       C1308   1.488       .  S
O245       Al247   1.913       .  S
O246        C248   1.259       .  A
O246       Al247   1.892       .  S
Al247       O255   1.880       .  S
Al247       O257   1.923       .  S
Al247       O256   1.775       .  S
C248        O261   1.265       .  A
C248       C1428   1.487       .  S
O249        C259   1.264       .  A
O249       Al251   1.901       .  S
O250        C263   1.265       .  A
O250       Al260   1.915       .  S
Al251       O264   1.918       .  S
Al251       O261   1.935       .  S
Al251       O256   1.779       .  S
O252        C259   1.269       .  A
O252       Al260   1.941       .  S
O253        C262   1.265       .  A
O253       Al260   1.939       .  S
O254       Al260   1.921       .  S
O255        C262   1.257       .  A
O256       Al260   1.785       .  S
O257        C258   1.265       .  A
C258       C1500   1.477       .  S
C259       C1836   1.488       .  S
C262       C1260   1.485       .  S
C263        O264   1.265       .  A
C263       C1332   1.481       .  S
O265        C280   1.258       .  A
O265       Al273   1.881       .  S
C266        O276   1.268       .  A
C266        O267   1.266       .  A
C266       C1153   1.490       .  S
O267       Al269   1.914       .  S
O268        C270   1.259       .  A
O268       Al269   1.891       .  S
Al269       O277   1.891       .  S
Al269       O279   1.913       .  S
Al269       O278   1.778       .  S
C270        O283   1.267       .  A
C270       C1201   1.491       .  S
O271        C281   1.265       .  A
O271       Al273   1.910       .  S
O272        C285   1.266       .  A
O272       Al282   1.918       .  S
Al273       O286   1.924       .  S
Al273       O283   1.950       .  S
Al273       O278   1.786       .  S
O274        C281   1.267       .  A
O274       Al282   1.929       .  S
O275        C284   1.264       .  A
O275       Al282   1.939       .  S
O276       Al282   1.921       .  S
O277        C284   1.258       .  A
O278       Al282   1.786       .  S
O279        C280   1.262       .  A
C280       C1225   1.475       .  S
C281       C1609   1.492       .  S
C284       C1476   1.489       .  S
C285        O286   1.267       .  A
C285       C1177   1.487       .  S
O287        C302   1.256       .  A
O287       Al295   1.876       .  S
C288        O298   1.269       .  A
C288        O289   1.267       .  A
C288       C1188   1.487       .  S
O289       Al291   1.917       .  S
O290        C292   1.259       .  A
O290       Al291   1.893       .  S
Al291       O299   1.890       .  S
Al291       O301   1.925       .  S
Al291       O300   1.779       .  S
C292        O305   1.265       .  A
C292       C1116   1.486       .  S
O293        C303   1.263       .  A
O293       Al295   1.904       .  S
O294        C307   1.268       .  A
O294       Al304   1.923       .  S
Al295       O308   1.917       .  S
Al295       O305   1.935       .  S
Al295       O300   1.783       .  S
O296        C303   1.265       .  A
O296       Al304   1.929       .  S
O297        C306   1.264       .  A
O297       Al304   1.936       .  S
O298       Al304   1.923       .  S
O299        C306   1.258       .  A
O300       Al304   1.787       .  S
O301        C302   1.263       .  A
C302       C1140   1.478       .  S
C303       C1585   1.488       .  S
C306       C1380   1.487       .  S
C307        O308   1.267       .  A
C307       C1164   1.488       .  S
O309        C324   1.257       .  A
O309       Al317   1.881       .  S
C310        O320   1.266       .  A
C310        O311   1.265       .  A
C310       C1057   1.484   1_554  S
O311       Al313   1.912       .  S
O312        C314   1.260       .  A
O312       Al313   1.887       .  S
Al313       O321   1.886       .  S
Al313       O323   1.916       .  S
Al313       O322   1.772       .  S
C314        O327   1.268       .  A
C314       C1105   1.486       .  S
O315        C325   1.260       .  A
O315       Al317   1.890       .  S
O316        C329   1.264       .  A
O316       Al326   1.900       .  S
Al317       O330   1.927       .  S
Al317       O327   1.948       .  S
Al317       O322   1.778       .  S
O318        C325   1.268       .  A
O318       Al326   1.945       .  S
O319        C328   1.269       .  A
O319       Al326   1.952       .  S
O320       Al326   1.915       .  S
O321        C328   1.259       .  A
O322       Al326   1.782       .  S
O323        C324   1.262       .  A
C324       C1236   1.473       .  S
C325       C1044   1.488       .  S
C328       C1273   1.489       .  S
C329        O330   1.268       .  A
C329       C1081   1.481       .  S
O331        C346   1.258       .  A
O331       Al339   1.883       .  S
C332        O342   1.263       .  A
C332        O333   1.266       .  A
C332       C1092   1.481       .  S
O333       Al335   1.923       .  S
O334        C336   1.259       .  A
O334       Al335   1.888       .  S
Al335       O343   1.876       .  S
Al335       O345   1.926       .  S
Al335       O344   1.774       .  S
C336        O349   1.269       .  A
C336       C1212   1.490       .  S
O337        C347   1.265       .  A
O337       Al339   1.904       .  S
O338        C351   1.264       .  A
O338       Al348   1.903       .  S
Al339       O352   1.931       .  S
Al339       O349   1.956       .  S
Al339       O344   1.778       .  S
O340        C347   1.268       .  A
O340       Al348   1.932       .  S
O341        C350   1.267       .  A
O341       Al348   1.950       .  S
O342       Al348   1.900       .  S
O343        C350   1.256       .  A
O344       Al348   1.782       .  S
O345        C346   1.264       .  A
C346       C1129   1.477       .  S
C347       C1009   1.488       .  S
C350       C1249   1.479       .  S
C351        O352   1.268       .  A
C351       C1068   1.485       .  S
O353        C368   1.260       .  A
O353       Al361   1.886       .  S
C354        O364   1.263       .  A
C354        O355   1.267       .  A
C354        C985   1.480       .  S
O355       Al357   1.923       .  S
O356        C358   1.259       .  A
O356       Al357   1.890       .  S
Al357       O365   1.881       .  S
Al357       O367   1.927       .  S
Al357       O366   1.773       .  S
C358        O371   1.267       .  A
C358        C948   1.486       .  S
O359        C369   1.264       .  A
O359       Al361   1.902       .  S
O360        C373   1.262       .  A
O360       Al370   1.897       .  S
Al361       O374   1.927       .  S
Al361       O371   1.940       .  S
Al361       O366   1.779       .  S
O362        C369   1.268       .  A
O362       Al370   1.934       .  S
O363        C372   1.266       .  A
O363       Al370   1.943       .  S
O364       Al370   1.897       .  S
O365        C372   1.257       .  A
O366       Al370   1.781       .  S
O367        C368   1.265       .  A
C368        C924   1.479       .  S
C369       C1033   1.488       .  S
C372        C889   1.483       .  S
C373        O374   1.266       .  A
C373        C972   1.476       .  S
O375        C390   1.258       .  A
O375       Al383   1.875       .  S
C376        O386   1.262       .  A
C376        O377   1.265       .  A
C376        C961   1.477       .  S
O377       Al379   1.916       .  S
O378        C380   1.260       .  A
O378       Al379   1.893       .  S
Al379       O387   1.871       .  S
Al379       O389   1.925       .  S
Al379       O388   1.774       .  S
C380        O393   1.266       .  A
C380        C865   1.485       .  S
O381        C391   1.263       .  A
O381       Al383   1.891       .  S
O382        C395   1.262       .  A
O382       Al392   1.900       .  S
Al383       O396   1.924       .  S
Al383       O393   1.942       .  S
Al383       O388   1.777       .  S
O384        C391   1.271       .  A
O384       Al392   1.947       .  S
O385        C394   1.269       .  A
O385       Al392   1.959       .  S
O386       Al392   1.898       .  S
O387        C394   1.256       .  A
O388       Al392   1.781       .  S
O389        C390   1.265       .  A
C390        C852   1.472       .  S
C391       C1020   1.487       .  S
C394        C828   1.487       .  S
C395        O396   1.265       .  A
C395        C996   1.479       .  S
O397        C412   1.257       .  A
O397       Al405   1.873       .  S
C398        O408   1.264       .  A
C398        O399   1.268       .  A
C398        C804   1.475       .  S
O399       Al401   1.921       .  S
O400        C402   1.258       .  A
O400       Al401   1.891       .  S
Al401       O409   1.880       .  S
Al401       O411   1.922       .  S
Al401       O410   1.772       .  S
C402        O415   1.266       .  A
C402        C937   1.487       .  S
O403        C413   1.262       .  A
O403       Al405   1.894       .  S
O404        C417   1.265       .  A
O404       Al414   1.899       .  S
Al405       O418   1.926       .  S
Al405       O415   1.937       .  S
Al405       O410   1.775       .  S
O406        C413   1.268       .  A
O406       Al414   1.942       .  S
O407        C416   1.266       .  A
O407       Al414   1.951       .  S
O408       Al414   1.892       .  S
O409        C416   1.256       .  A
O410       Al414   1.782       .  S
O411        C412   1.265       .  A
C412        C841   1.473       .  S
C413       C2113   1.486       .  S
C416        C756   1.486       .  S
C417        O418   1.268       .  A
C417        C769   1.479       .  S
O419        C434   1.258       .  A
O419       Al427   1.883       .  S
C420        O430   1.263       .  A
C420        O421   1.267       .  A
C420        C780   1.478       .  S
O421       Al423   1.925       .  S
O422        C424   1.259       .  A
O422       Al423   1.886       .  S
Al423       O431   1.878       .  S
Al423       O433   1.927       .  S
Al423       O432   1.772       .  S
C424        O437   1.267       .  A
C424        C876   1.486       .  S
O425        C435   1.263       .  A
O425       Al427   1.901       .  S
O426        C439   1.263       .  A
O426       Al436   1.890       .  S
Al427       O440   1.927       .  S
Al427       O437   1.943       .  S
Al427       O432   1.777       .  S
O428        C435   1.267       .  A
O428       Al436   1.932       .  S
O429        C438   1.266       .  A
O429       Al436   1.950       .  S
O430       Al436   1.894       .  S
O431        C438   1.256       .  A
O432       Al436   1.782       .  S
O433        C434   1.264       .  A
C434        C913   1.479       .  S
C435       C2028   1.486       .  S
C438        C721   1.483       .  S
C439        O440   1.267       .  A
C439        C793   1.475   1_556  S
O441        C456   1.259       .  A
O441       Al449   1.880       .  S
C442        O452   1.264       .  A
C442        O443   1.267       .  A
C442        C625   1.481       .  S
O443       Al445   1.924       .  S
O444        C446   1.257       .  A
O444       Al445   1.887       .  S
Al445       O453   1.880       .  S
Al445       O455   1.923       .  S
Al445       O454   1.775       .  S
C446        O459   1.267       .  A
C446        C673   1.486       .  S
O447        C457   1.265       .  A
O447       Al449   1.906       .  S
O448        C461   1.265       .  A
O448       Al458   1.911       .  S
Al449       O462   1.925       .  S
Al449       O459   1.945       .  S
Al449       O454   1.781       .  S
O450        C457   1.267       .  A
O450       Al458   1.926       .  S
O451        C460   1.265       .  A
O451       Al458   1.942       .  S
O452       Al458   1.901       .  S
O453        C460   1.256       .  A
O454       Al458   1.779       .  S
O455        C456   1.265       .  A
C456        C708   1.475       .  S
C457       C1452   1.485       .  S
C460        C745   1.486       .  S
C461        O462   1.266       .  A
C461        C660   1.480       .  S
O463        C478   1.258       .  A
O463       Al471   1.882       .  S
C464        O474   1.267   1_554  A
C464        O465   1.266   1_554  A
C464        C649   1.481       .  S
O465       Al467   1.916       .  S
O466        C468   1.259       .  A
O466       Al467   1.893       .  S
Al467       O475   1.893       .  S
Al467       O477   1.919       .  S
Al467       O476   1.777       .  S
C468        O481   1.267       .  A
C468        C577   1.489       .  S
O469        C479   1.264       .  A
O469       Al471   1.909       .  S
O470        C483   1.266       .  A
O470       Al480   1.910       .  S
Al471       O484   1.925       .  S
Al471       O481   1.942       .  S
Al471       O476   1.782       .  S
O472        C479   1.265       .  A
O472       Al480   1.924       .  S
O473        C482   1.264       .  A
O473       Al480   1.936       .  S
O474       Al480   1.913       .  S
O475        C482   1.258       .  A
O476       Al480   1.784       .  S
O477        C478   1.263       .  A
C478        C601   1.477       .  S
C479       C1356   1.489       .  S
C482        C732   1.486       .  S
C483        O484   1.268       .  A
C483        C636   1.485       .  S
O485        C500   1.258       .  A
O485       Al493   1.879       .  S
C486        O496   1.264       .  A
C486        O487   1.265       .  A
C486        C529   1.482       .  S
O487       Al489   1.911       .  S
O488        C490   1.260       .  A
O488       Al489   1.893       .  S
Al489       O497   1.870       .  S
Al489       O499   1.924       .  S
Al489       O498   1.773       .  S
C490        O503   1.268       .  A
C490        C588   1.490       .  S
O491        C501   1.262       .  A
O491       Al493   1.890       .  S
O492        C505   1.263       .  A
O492       Al502   1.902       .  S
Al493       O506   1.929       .  S
Al493       O503   1.947       .  S
Al493       O498   1.779       .  S
O494        C501   1.269       .  A
O494       Al502   1.938       .  S
O495        C504   1.267       .  A
O495       Al502   1.951       .  S
O496       Al502   1.910       .  S
O497        C504   1.257       .  A
O498       Al502   1.784       .  S
O499        C500   1.264       .  A
C500        C697   1.475       .  S
C501       C1729   1.484       .  S
C504        C900   1.485       .  S
C505        O506   1.266       .  A
C505        C553   1.484       .  S
O507        C522   1.257       .  A
O507       Al515   1.874       .  S
C508        O518   1.266       .  A
C508        O509   1.267       .  A
C508        C564   1.481       .  S
O509       Al511   1.922       .  S
O510        C512   1.260       .  A
O510       Al511   1.896       .  S
Al511       O519   1.887       .  S
Al511       O521   1.928       .  S
Al511       O520   1.774       .  S
C512        O525   1.264       .  A
C512        C684   1.485       .  S
O513        C523   1.262       .  A
O513       Al515   1.896       .  S
O514        C527   1.265       .  A
O514       Al524   1.910       .  S
Al515       O528   1.916       .  S
Al515       O525   1.930       .  S
Al515       O520   1.777       .  S
O516        C523   1.267       .  A
O516       Al524   1.929       .  S
O517        C526   1.265       .  A
O517       Al524   1.940       .  S
O518       Al524   1.907       .  S
O519        C526   1.258       .  A
O520       Al524   1.784       .  S
O521        C522   1.265       .  A
C522        C612   1.473       .  S
C523       C1692   1.482       .  S
C526        C817   1.486       .  S
C527        O528   1.265       .  A
C527        C540   1.478       .  S
C529        C530   1.407       .  A
C529        C534   1.406       .  A
C530        C531   1.404       .  A
C530        H543   1.083       .  S
C531        C532   1.405   1_554  A
C531        H544   1.083   1_554  S
C532        C533   1.404       .  A
C532        C535   1.486       .  S
C533        C534   1.393   1_556  A
C533        H545   1.083       .  S
C534        H546   1.083       .  S
C535        C536   1.347       .  D
C535        H547   1.085       .  S
C536        C537   1.481       .  S
C536        H548   1.086       .  S
C537        C538   1.401       .  A
C537        C542   1.408       .  A
C538        C539   1.393       .  A
C538        H549   1.083       .  S
C539        C540   1.405       .  A
C539        H550   1.084       .  S
C540        C541   1.406       .  A
C541        C542   1.405       .  A
C541        H551   1.083       .  S
C542        H552   1.082       .  S
C553        C554   1.406       .  A
C553        C558   1.406       .  A
C554        C555   1.401       .  A
C554        H567   1.083       .  S
C555        C556   1.404       .  A
C555        H568   1.083       .  S
C556        C557   1.408       .  A
C556        C559   1.489       .  S
C557        C558   1.399       .  A
C557        H569   1.082       .  S
C558        H570   1.083       .  S
C559        C560   1.349       .  D
C559        H571   1.086       .  S
C560        C561   1.489       .  S
C560        H572   1.086       .  S
C561        C562   1.406       .  A
C561        C566   1.407       .  A
C562        C563   1.402       .  A
C562        H573   1.083       .  S
C563        C564   1.405       .  A
C563        H574   1.083       .  S
C564        C565   1.405       .  A
C565        C566   1.397       .  A
C565        H575   1.083       .  S
C566        H576   1.081       .  S
C577        C578   1.406       .  A
C577        C582   1.407   1_556  A
C578        C579   1.404       .  A
C578        H591   1.083       .  S
C579        C580   1.406   1_556  A
C579        H592   1.083       .  S
C580        C581   1.408       .  A
C580        C583   1.496       .  S
C581        C582   1.402       .  A
C581        H593   1.082       .  S
C582        H594   1.083       .  S
C583        C584   1.351       .  D
C583        H595   1.086       .  S
C584        C585   1.496       .  S
C584        H596   1.086       .  S
C585        C586   1.406       .  A
C585        C590   1.408       .  A
C586        C587   1.403       .  A
C586        H597   1.083       .  S
C587        C588   1.406       .  A
C587        H598   1.083       .  S
C588        C589   1.408       .  A
C589        C590   1.402       .  A
C589        H599   1.083       .  S
C590        H600   1.081       .  S
C601        C602   1.405       .  A
C601        C606   1.405       .  A
C602        C603   1.394       .  A
C602        H615   1.083       .  S
C603        C604   1.401       .  A
C603        H616   1.084       .  S
C604        C605   1.408       .  A
C604        C607   1.482       .  S
C605        C606   1.398       .  A
C605        H617   1.082       .  S
C606        H618   1.083       .  S
C607        C608   1.345       .  D
C607        H619   1.085       .  S
C608        C609   1.481       .  S
C608        H620   1.085       .  S
C609        C610   1.401       .  A
C609        C614   1.408       .  A
C610        C611   1.393       .  A
C610        H621   1.084       .  S
C611        C612   1.405       .  A
C611        H622   1.083       .  S
C612        C613   1.404       .  A
C613        C614   1.399       .  A
C613        H623   1.083       .  S
C614        H624   1.082       .  S
C625        C626   1.405       .  A
C625        C630   1.405       .  A
C626        C627   1.400       .  A
C626        H639   1.083       .  S
C627        C628   1.405       .  A
C627        H640   1.083       .  S
C628        C629   1.407       .  A
C628        C631   1.488       .  S
C629        C630   1.398       .  A
C629        H641   1.082       .  S
C630        H642   1.083       .  S
C631        C632   1.349       .  D
C631        H643   1.086       .  S
C632        C633   1.489       .  S
C632        H644   1.086       .  S
C633        C634   1.405       .  A
C633        C638   1.406       .  A
C634        C635   1.403       .  A
C634        H645   1.083       .  S
C635        C636   1.406       .  A
C635        H646   1.083       .  S
C636        C637   1.406       .  A
C637        C638   1.397       .  A
C637        H647   1.083       .  S
C638        H648   1.082       .  S
C649        C650   1.405       .  A
C649        C654   1.405       .  A
C650        C651   1.394       .  A
C650        H663   1.083       .  S
C651        C652   1.402       .  A
C651        H664   1.084       .  S
C652        C653   1.411       .  A
C652        C655   1.491       .  S
C653        C654   1.404       .  A
C653        H665   1.081       .  S
C654        H666   1.083       .  S
C655        C656   1.347       .  D
C655        H667   1.085       .  S
C656        C657   1.490       .  S
C656        H668   1.085       .  S
C657        C658   1.402       .  A
C657        C662   1.410       .  A
C658        C659   1.397       .  A
C658        H669   1.083       .  S
C659        C660   1.405       .  A
C659        H670   1.083       .  S
C660        C661   1.405       .  A
C661        C662   1.403       .  A
C661        H671   1.083       .  S
C662        H672   1.082       .  S
C673        C674   1.406       .  A
C673        C678   1.406       .  A
C674        C675   1.399       .  A
C674        H687   1.083       .  S
C675        C676   1.405       .  A
C675        H688   1.083       .  S
C676        C677   1.410       .  A
C676        C679   1.495       .  S
C677        C678   1.405       .  A
C677        H689   1.081       .  S
C678        H690   1.083       .  S
C679        C680   1.351       .  D
C679        H691   1.086       .  S
C680        C681   1.493       .  S
C680        H692   1.085       .  S
C681        C682   1.409       .  A
C681        C686   1.404       .  A
C682        C683   1.403       .  A
C682        H693   1.082       .  S
C683        C684   1.407       .  A
C683        H694   1.083       .  S
C684        C685   1.405       .  A
C685        C686   1.400       .  A
C685        H695   1.083       .  S
C686        H696   1.083       .  S
C697        C698   1.405       .  A
C697        C702   1.405       .  A
C698        C699   1.398       .  A
C698        H711   1.083       .  S
C699        C700   1.407       .  A
C699        H712   1.082       .  S
C700        C701   1.401       .  A
C700        C703   1.479       .  S
C701        C702   1.393       .  A
C701        H713   1.084       .  S
C702        H714   1.083       .  S
C703        C704   1.345       .  D
C703        H715   1.086       .  S
C704        C705   1.480       .  S
C704        H716   1.086       .  S
C705        C706   1.401       .  A
C705        C710   1.407       .  A
C706        C707   1.395       .  A
C706        H717   1.084       .  S
C707        C708   1.406       .  A
C707        H718   1.083       .  S
C708        C709   1.404       .  A
C709        C710   1.397       .  A
C709        H719   1.083       .  S
C710        H720   1.082       .  S
C721        C722   1.404       .  A
C721        C726   1.406       .  A
C722        C723   1.393       .  A
C722        H735   1.084       .  S
C723        C724   1.403       .  A
C723        H736   1.084       .  S
C724        C725   1.412       .  A
C724        C727   1.492       .  S
C725        C726   1.408       .  A
C725        H737   1.081       .  S
C726        H738   1.083       .  S
C727        C728   1.349   1_455  D
C727        H739   1.086       .  S
C728        C729   1.493       .  S
C728        H740   1.084   1_655  S
C729        C730   1.405       .  A
C729        C734   1.408       .  A
C730        C731   1.404       .  A
C730        H741   1.083       .  S
C731        C732   1.407       .  A
C731        H742   1.083       .  S
C732        C733   1.405       .  A
C733        C734   1.397       .  A
C733        H743   1.083       .  S
C734        H744   1.082       .  S
C745        C746   1.407       .  A
C745        C750   1.406       .  A
C746        C747   1.406       .  A
C746        H759   1.083       .  S
C747        C748   1.406       .  A
C747        H760   1.083       .  S
C748        C749   1.407       .  A
C748        C751   1.493       .  S
C749        C750   1.395       .  A
C749        H761   1.082       .  S
C750        H762   1.083       .  S
C751        C752   1.350   1_655  D
C751        H763   1.084       .  S
C752        C753   1.493       .  S
C752        H764   1.087   1_455  S
C753        C754   1.403       .  A
C753        C758   1.411       .  A
C754        C755   1.393       .  A
C754        H765   1.084       .  S
C755        C756   1.404       .  A
C755        H766   1.083       .  S
C756        C757   1.407       .  A
C757        C758   1.408       .  A
C757        H767   1.083       .  S
C758        H768   1.081       .  S
C769        C770   1.405       .  A
C769        C774   1.405       .  A
C770        C771   1.395       .  A
C770        H783   1.083       .  S
C771        C772   1.406       .  A
C771        H784   1.082       .  S
C772        C773   1.404       .  A
C772        C775   1.483       .  S
C773        C774   1.399       .  A
C773        H785   1.083       .  S
C774        H786   1.083       .  S
C775        C776   1.346       .  D
C775        H787   1.086       .  S
C776        C777   1.482       .  S
C776        H788   1.086       .  S
C777        C778   1.403       .  A
C777        C782   1.406       .  A
C778        C779   1.399       .  A
C778        H789   1.083       .  S
C779        C780   1.406       .  A
C779        H790   1.083       .  S
C780        C781   1.404       .  A
C781        C782   1.395       .  A
C781        H791   1.083       .  S
C782        H792   1.082       .  S
C793        C794   1.404       .  A
C793        C798   1.404       .  A
C794        C795   1.397       .  A
C794        H807   1.083       .  S
C795        C796   1.402       .  A
C795        H808   1.083       .  S
C796        C797   1.407       .  A
C796        C799   1.481       .  S
C797        C798   1.396       .  A
C797        H809   1.082       .  S
C798        H810   1.083       .  S
C799        C800   1.344       .  D
C799        H811   1.086       .  S
C800        C801   1.481       .  S
C800        H812   1.086       .  S
C801        C802   1.402       .  A
C801        C806   1.407       .  A
C802        C803   1.397       .  A
C802        H813   1.083       .  S
C803        C804   1.405       .  A
C803        H814   1.083       .  S
C804        C805   1.405       .  A
C805        C806   1.395       .  A
C805        H815   1.083       .  S
C806        H816   1.082       .  S
C817        C818   1.407       .  A
C817        C822   1.406       .  A
C818        C819   1.405       .  A
C818        H831   1.083       .  S
C819        C820   1.405       .  A
C819        H832   1.083       .  S
C820        C821   1.408       .  A
C820        C823   1.493       .  S
C821        C822   1.397       .  A
C821        H833   1.082       .  S
C822        H834   1.083       .  S
C823        C824   1.350   1_655  D
C823        H835   1.084       .  S
C824        C825   1.493       .  S
C824        H836   1.086   1_455  S
C825        C826   1.402       .  A
C825        C830   1.412       .  A
C826        C827   1.392       .  A
C826        H837   1.084       .  S
C827        C828   1.406       .  A
C827        H838   1.083       .  S
C828        C829   1.407       .  A
C829        C830   1.409       .  A
C829        H839   1.083       .  S
C830        H840   1.080       .  S
C841        C842   1.403       .  A
C841        C846   1.406       .  A
C842        C843   1.395       .  A
C842        H855   1.083       .  S
C843        C844   1.407       .  A
C843        H856   1.082       .  S
C844        C845   1.401       .  A
C844        C847   1.479       .  S
C845        C846   1.394       .  A
C845        H857   1.084       .  S
C846        H858   1.083       .  S
C847        C848   1.344       .  D
C847        H859   1.086       .  S
C848        C849   1.475       .  S
C848        H860   1.085       .  S
C849        C850   1.400       .  A
C849        C854   1.406       .  A
C850        C851   1.391       .  A
C850        H861   1.083       .  S
C851        C852   1.404       .  A
C851        H862   1.083       .  S
C852        C853   1.405       .  A
C853        C854   1.398       .  A
C853        H863   1.083       .  S
C854        H864   1.082       .  S
C865        C866   1.405       .  A
C865        C870   1.407       .  A
C866        C867   1.399       .  A
C866        H879   1.083       .  S
C867        C868   1.404       .  A
C867        H880   1.083       .  S
C868        C869   1.409       .  A
C868        C871   1.493       .  S
C869        C870   1.404       .  A
C869        H881   1.082       .  S
C870        H882   1.083       .  S
C871        C872   1.350       .  D
C871        H883   1.085       .  S
C872        C873   1.493       .  S
C872        H884   1.085       .  S
C873        C874   1.403       .  A
C873        C878   1.410       .  A
C874        C875   1.397       .  A
C874        H885   1.083       .  S
C875        C876   1.406       .  A
C875        H886   1.083       .  S
C876        C877   1.407       .  A
C877        C878   1.405       .  A
C877        H887   1.083       .  S
C878        H888   1.081       .  S
C889        C890   1.407       .  A
C889        C894   1.405       .  A
C890        C891   1.405       .  A
C890        H903   1.083       .  S
C891        C892   1.405       .  A
C891        H904   1.083       .  S
C892        C893   1.407       .  A
C892        C895   1.490       .  S
C893        C894   1.394       .  A
C893        H905   1.083       .  S
C894        H906   1.083       .  S
C895        C896   1.348   1_455  D
C895        H907   1.084       .  S
C896        C897   1.489       .  S
C896        H908   1.087   1_655  S
C897        C898   1.401       .  A
C897        C902   1.411       .  A
C898        C899   1.390       .  A
C898        H909   1.084       .  S
C899        C900   1.405       .  A
C899        H910   1.083       .  S
C900        C901   1.407       .  A
C901        C902   1.408       .  A
C901        H911   1.083       .  S
C902        H912   1.081       .  S
C913        C914   1.405   1_556  A
C913        C918   1.405       .  A
C914        C915   1.394       .  A
C914        H927   1.083       .  S
C915        C916   1.402       .  A
C915        H928   1.083       .  S
C916        C917   1.408   1_554  A
C916        C919   1.485       .  S
C917        C918   1.400       .  A
C917        H929   1.082       .  S
C918        H930   1.083       .  S
C919        C920   1.346       .  D
C919        H931   1.085       .  S
C920        C921   1.485       .  S
C920        H932   1.085       .  S
C921        C922   1.408       .  A
C921        C926   1.402       .  A
C922        C923   1.399       .  A
C922        H933   1.082       .  S
C923        C924   1.405       .  A
C923        H934   1.083       .  S
C924        C925   1.405       .  A
C925        C926   1.395       .  A
C925        H935   1.083       .  S
C926        H936   1.083       .  S
C937        C938   1.405       .  A
C937        C942   1.407       .  A
C938        C939   1.402       .  A
C938        H951   1.083       .  S
C939        C940   1.406       .  A
C939        H952   1.083       .  S
C940        C941   1.408       .  A
C940        C943   1.493       .  S
C941        C942   1.401       .  A
C941        H953   1.081       .  S
C942        H954   1.083       .  S
C943        C944   1.350       .  D
C943        H955   1.085       .  S
C944        C945   1.493       .  S
C944        H956   1.085       .  S
C945        C946   1.405       .  A
C945        C950   1.408       .  A
C946        C947   1.402       .  A
C946        H957   1.083       .  S
C947        C948   1.406       .  A
C947        H958   1.083       .  S
C948        C949   1.407       .  A
C949        C950   1.400       .  A
C949        H959   1.083       .  S
C950        H960   1.082       .  S
C961        C962   1.404       .  A
C961        C966   1.404       .  A
C962        C963   1.400       .  A
C962        H975   1.083       .  S
C963        C964   1.405       .  A
C963        H976   1.083       .  S
C964        C965   1.408       .  A
C964        C967   1.486       .  S
C965        C966   1.395       .  A
C965        H977   1.081       .  S
C966        H978   1.083       .  S
C967        C968   1.347       .  D
C967        H979   1.085       .  S
C968        C969   1.485       .  S
C968        H980   1.085       .  S
C969        C970   1.404   1_556  A
C969        C974   1.408       .  A
C970        C971   1.399       .  A
C970        H981   1.083       .  S
C971        C972   1.404       .  A
C971        H982   1.083       .  S
C972        C973   1.404       .  A
C973        C974   1.397   1_554  A
C973        H983   1.083       .  S
C974        H984   1.081       .  S
C985        C986   1.406       .  A
C985        C990   1.405       .  A
C986        C987   1.401       .  A
C986        H999   1.083       .  S
C987        C988   1.404       .  A
C987       H1000   1.083       .  S
C988        C989   1.406       .  A
C988        C991   1.484       .  S
C989        C990   1.395       .  A
C989       H1001   1.082       .  S
C990       H1002   1.083       .  S
C991        C992   1.347       .  D
C991       H1003   1.086       .  S
C992        C993   1.484       .  S
C992       H1004   1.086       .  S
C993        C994   1.404       .  A
C993        C998   1.407       .  A
C994        C995   1.399       .  A
C994       H1005   1.083       .  S
C995        C996   1.404       .  A
C995       H1006   1.083       .  S
C996        C997   1.405       .  A
C997        C998   1.397       .  A
C997       H1007   1.083       .  S
C998       H1008   1.082       .  S
C1009      C1010   1.407       .  A
C1009      C1014   1.406       .  A
C1010      C1011   1.400       .  A
C1010      H1023   1.083       .  S
C1011      C1012   1.408       .  A
C1011      H1024   1.081       .  S
C1012      C1013   1.406       .  A
C1012      C1015   1.495       .  S
C1013      C1014   1.402       .  A
C1013      H1025   1.083       .  S
C1014      H1026   1.083       .  S
C1015      C1016   1.353       .  D
C1015      H1027   1.085       .  S
C1016      C1017   1.493       .  S
C1016      H1028   1.084       .  S
C1017      C1018   1.406       .  A
C1017      C1022   1.408       .  A
C1018      C1019   1.401       .  A
C1018      H1029   1.083       .  S
C1019      C1020   1.405       .  A
C1019      H1030   1.083       .  S
C1020      C1021   1.408       .  A
C1021      C1022   1.401       .  A
C1021      H1031   1.083       .  S
C1022      H1032   1.081       .  S
C1033      C1034   1.407       .  A
C1033      C1038   1.406       .  A
C1034      C1035   1.403       .  A
C1034      H1047   1.083       .  S
C1035      C1036   1.410       .  A
C1035      H1048   1.080       .  S
C1036      C1037   1.405       .  A
C1036      C1039   1.496       .  S
C1037      C1038   1.399       .  A
C1037      H1049   1.083       .  S
C1038      H1050   1.083       .  S
C1039      C1040   1.351       .  D
C1039      H1051   1.085       .  S
C1040      C1041   1.493       .  S
C1040      H1052   1.083       .  S
C1041      C1042   1.403       .  A
C1041      C1046   1.409       .  A
C1042      C1043   1.400       .  A
C1042      H1053   1.083       .  S
C1043      C1044   1.408       .  A
C1043      H1054   1.083       .  S
C1044      C1045   1.406       .  A
C1045      C1046   1.404       .  A
C1045      H1055   1.083       .  S
C1046      H1056   1.082       .  S
C1057      C1058   1.407       .  A
C1057      C1062   1.408       .  A
C1058      C1059   1.392       .  A
C1058      H1071   1.083       .  S
C1059      C1060   1.397       .  A
C1059      H1072   1.084       .  S
C1060      C1061   1.406       .  A
C1060      C1063   1.477       .  S
C1061      C1062   1.407       .  A
C1061      H1073   1.083       .  S
C1062      H1074   1.083       .  S
C1063      C1064   1.344       .  D
C1063      H1075   1.086       .  S
C1064      C1065   1.489       .  S
C1064      H1076   1.087       .  S
C1065      C1066   1.404       .  A
C1065      C1070   1.406       .  A
C1066      C1067   1.403       .  A
C1066      H1077   1.083       .  S
C1067      C1068   1.408       .  A
C1067      H1078   1.083       .  S
C1068      C1069   1.406       .  A
C1069      C1070   1.397       .  A
C1069      H1079   1.083       .  S
C1070      H1080   1.083       .  S
C1081      C1082   1.406       .  A
C1081      C1086   1.405       .  A
C1082      C1083   1.401       .  A
C1082      H1095   1.083       .  S
C1083      C1084   1.404       .  A
C1083      H1096   1.083       .  S
C1084      C1085   1.407       .  A
C1084      C1087   1.485       .  S
C1085      C1086   1.397       .  A
C1085      H1097   1.082       .  S
C1086      H1098   1.083       .  S
C1087      C1088   1.347       .  D
C1087      H1099   1.086       .  S
C1088      C1089   1.486       .  S
C1088      H1100   1.086       .  S
C1089      C1090   1.404       .  A
C1089      C1094   1.407       .  A
C1090      C1091   1.400       .  A
C1090      H1101   1.083       .  S
C1091      C1092   1.405       .  A
C1091      H1102   1.083       .  S
C1092      C1093   1.406       .  A
C1093      C1094   1.397       .  A
C1093      H1103   1.083       .  S
C1094      H1104   1.081       .  S
C1105      C1106   1.407       .  A
C1105      C1110   1.406   1_554  A
C1106      C1107   1.406       .  A
C1106      H1119   1.083       .  S
C1107      C1108   1.410   1_554  A
C1107      H1120   1.082       .  S
C1108      C1109   1.403       .  A
C1108      C1111   1.494       .  S
C1109      C1110   1.398       .  A
C1109      H1121   1.083       .  S
C1110      H1122   1.083       .  S
C1111      C1112   1.350       .  D
C1111      H1123   1.085       .  S
C1112      C1113   1.495       .  S
C1112      H1124   1.085   1_556  S
C1113      C1114   1.405       .  A
C1113      C1118   1.410       .  A
C1114      C1115   1.400       .  A
C1114      H1125   1.083   1_556  S
C1115      C1116   1.405       .  A
C1115      H1126   1.083       .  S
C1116      C1117   1.407       .  A
C1117      C1118   1.404       .  A
C1117      H1127   1.083       .  S
C1118      H1128   1.082       .  S
C1129      C1130   1.405       .  A
C1129      C1134   1.405       .  A
C1130      C1131   1.395       .  A
C1130      H1143   1.083       .  S
C1131      C1132   1.401       .  A
C1131      H1144   1.084       .  S
C1132      C1133   1.408       .  A
C1132      C1135   1.482       .  S
C1133      C1134   1.399       .  A
C1133      H1145   1.082       .  S
C1134      H1146   1.083       .  S
C1135      C1136   1.345       .  D
C1135      H1147   1.086       .  S
C1136      C1137   1.483       .  S
C1136      H1148   1.086       .  S
C1137      C1138   1.401       .  A
C1137      C1142   1.408       .  A
C1138      C1139   1.394       .  A
C1138      H1149   1.084       .  S
C1139      C1140   1.406       .  A
C1139      H1150   1.083       .  S
C1140      C1141   1.405       .  A
C1141      C1142   1.400       .  A
C1141      H1151   1.083       .  S
C1142      H1152   1.082       .  S
C1153      C1154   1.408       .  A
C1153      C1158   1.408       .  A
C1154      C1155   1.407       .  A
C1154      H1167   1.083       .  S
C1155      C1156   1.406       .  A
C1155      H1168   1.083       .  S
C1156      C1157   1.404       .  A
C1156      C1159   1.491       .  S
C1157      C1158   1.396       .  A
C1157      H1169   1.083       .  S
C1158      H1170   1.083       .  S
C1159      C1160   1.348       .  D
C1159      H1171   1.086       .  S
C1160      C1161   1.486       .  S
C1160      H1172   1.087       .  S
C1161      C1162   1.400       .  A
C1161      C1166   1.408       .  A
C1162      C1163   1.394       .  A
C1162      H1173   1.084       .  S
C1163      C1164   1.407       .  A
C1163      H1174   1.083       .  S
C1164      C1165   1.409       .  A
C1165      C1166   1.409       .  A
C1165      H1175   1.083       .  S
C1166      H1176   1.083       .  S
C1177      C1178   1.406       .  A
C1177      C1182   1.407       .  A
C1178      C1179   1.397       .  A
C1178      H1191   1.083       .  S
C1179      C1180   1.402       .  A
C1179      H1192   1.084       .  S
C1180      C1181   1.410       .  A
C1180      C1183   1.492       .  S
C1181      C1182   1.406       .  A
C1181      H1193   1.082       .  S
C1182      H1194   1.083       .  S
C1183      C1184   1.348       .  D
C1183      H1195   1.086       .  S
C1184      C1185   1.492       .  S
C1184      H1196   1.086       .  S
C1185      C1186   1.402       .  A
C1185      C1190   1.411       .  A
C1186      C1187   1.397   1_554  A
C1186      H1197   1.084       .  S
C1187      C1188   1.407       .  A
C1187      H1198   1.083       .  S
C1188      C1189   1.406       .  A
C1189      C1190   1.406   1_556  A
C1189      H1199   1.083       .  S
C1190      H1200   1.082       .  S
C1201      C1202   1.406       .  A
C1201      C1206   1.408       .  A
C1202      C1203   1.400       .  A
C1202      H1215   1.083       .  S
C1203      C1204   1.404       .  A
C1203      H1216   1.083       .  S
C1204      C1205   1.411       .  A
C1204      C1207   1.499       .  S
C1205      C1206   1.408       .  A
C1205      H1217   1.082       .  S
C1206      H1218   1.083       .  S
C1207      C1208   1.352       .  D
C1207      H1219   1.085       .  S
C1208      C1209   1.500       .  S
C1208      H1220   1.085       .  S
C1209      C1210   1.412       .  A
C1209      C1214   1.405       .  A
C1210      C1211   1.407       .  A
C1210      H1221   1.081       .  S
C1211      C1212   1.407       .  A
C1211      H1222   1.083       .  S
C1212      C1213   1.406       .  A
C1213      C1214   1.400       .  A
C1213      H1223   1.083       .  S
C1214      H1224   1.083       .  S
C1225      C1226   1.405       .  A
C1225      C1230   1.405       .  A
C1226      C1227   1.394       .  A
C1226      H1239   1.083       .  S
C1227      C1228   1.401       .  A
C1227      H1240   1.084       .  S
C1228      C1229   1.405       .  A
C1228      C1231   1.477       .  S
C1229      C1230   1.396       .  A
C1229      H1241   1.082       .  S
C1230      H1242   1.083       .  S
C1231      C1232   1.345       .  D
C1231      H1243   1.086       .  S
C1232      C1233   1.477       .  S
C1232      H1244   1.086       .  S
C1233      C1234   1.401       .  A
C1233      C1238   1.405       .  A
C1234      C1235   1.394       .  A
C1234      H1245   1.084       .  S
C1235      C1236   1.405       .  A
C1235      H1246   1.083       .  S
C1236      C1237   1.404       .  A
C1237      C1238   1.395       .  A
C1237      H1247   1.083       .  S
C1238      H1248   1.082       .  S
C1249      C1250   1.403       .  A
C1249      C1254   1.405       .  A
C1250      C1251   1.393       .  A
C1250      H1263   1.084       .  S
C1251      C1252   1.404       .  A
C1251      H1264   1.084       .  S
C1252      C1253   1.412       .  A
C1252      C1255   1.492       .  S
C1253      C1254   1.407       .  A
C1253      H1265   1.080       .  S
C1254      H1266   1.083       .  S
C1255      C1256   1.349       .  D
C1255      H1267   1.086       .  S
C1256      C1257   1.492       .  S
C1256      H1268   1.084       .  S
C1257      C1258   1.406       .  A
C1257      C1262   1.407       .  A
C1258      C1259   1.405       .  A
C1258      H1269   1.083       .  S
C1259      C1260   1.407       .  A
C1259      H1270   1.083       .  S
C1260      C1261   1.406       .  A
C1261      C1262   1.395       .  A
C1261      H1271   1.083       .  S
C1262      H1272   1.082       .  S
C1273      C1274   1.406       .  A
C1273      C1278   1.407       .  A
C1274      C1275   1.405       .  A
C1274      H1287   1.083       .  S
C1275      C1276   1.406       .  A
C1275      H1288   1.083       .  S
C1276      C1277   1.407       .  A
C1276      C1279   1.495       .  S
C1277      C1278   1.398       .  A
C1277      H1289   1.082       .  S
C1278      H1290   1.083       .  S
C1279      C1280   1.351       .  D
C1279      H1291   1.084       .  S
C1280      C1281   1.495       .  S
C1280      H1292   1.085       .  S
C1281      C1282   1.404       .  A
C1281      C1286   1.412       .  A
C1282      C1283   1.395       .  A
C1282      H1293   1.083       .  S
C1283      C1284   1.404       .  A
C1283      H1294   1.084       .  S
C1284      C1285   1.405       .  A
C1285      C1286   1.408       .  A
C1285      H1295   1.083       .  S
C1286      H1296   1.080       .  S
C1297      C1298   1.406       .  A
C1297      C1302   1.406       .  A
C1298      C1299   1.397       .  A
C1298      H1311   1.083       .  S
C1299      C1300   1.402       .  A
C1299      H1312   1.083       .  S
C1300      C1301   1.410       .  A
C1300      C1303   1.490       .  S
C1301      C1302   1.404       .  A
C1301      H1313   1.082       .  S
C1302      H1314   1.083       .  S
C1303      C1304   1.346       .  D
C1303      H1315   1.086       .  S
C1304      C1305   1.489       .  S
C1304      H1316   1.086       .  S
C1305      C1306   1.400       .  A
C1305      C1310   1.410       .  A
C1306      C1307   1.394       .  A
C1306      H1317   1.084       .  S
C1307      C1308   1.407       .  A
C1307      H1318   1.083       .  S
C1308      C1309   1.408       .  A
C1309      C1310   1.408       .  A
C1309      H1319   1.083       .  S
C1310      H1320   1.082       .  S
C1321      C1322   1.405       .  A
C1321      C1326   1.407       .  A
C1322      C1323   1.402       .  A
C1322      H1335   1.083       .  S
C1323      C1324   1.405       .  A
C1323      H1336   1.083       .  S
C1324      C1325   1.406       .  A
C1324      C1327   1.488       .  S
C1325      C1326   1.398       .  A
C1325      H1337   1.082       .  S
C1326      H1338   1.083       .  S
C1327      C1328   1.350       .  D
C1327      H1339   1.086       .  S
C1328      C1329   1.489       .  S
C1328      H1340   1.086       .  S
C1329      C1330   1.407       .  A
C1329      C1334   1.406       .  A
C1330      C1331   1.404       .  A
C1330      H1341   1.083       .  S
C1331      C1332   1.405       .  A
C1331      H1342   1.083       .  S
C1332      C1333   1.405       .  A
C1333      C1334   1.395       .  A
C1333      H1343   1.083       .  S
C1334      H1344   1.081       .  S
C1345      C1346   1.407       .  A
C1345      C1350   1.406       .  A
C1346      C1347   1.404       .  A
C1346      H1359   1.083       .  S
C1347      C1348   1.410       .  A
C1347      H1360   1.081       .  S
C1348      C1349   1.404       .  A
C1348      C1351   1.494       .  S
C1349      C1350   1.398       .  A
C1349      H1361   1.083       .  S
C1350      H1362   1.083       .  S
C1351      C1352   1.350       .  D
C1351      H1363   1.085       .  S
C1352      C1353   1.492       .  S
C1352      H1364   1.084       .  S
C1353      C1354   1.403       .  A
C1353      C1358   1.409       .  A
C1354      C1355   1.400       .  A
C1354      H1365   1.083       .  S
C1355      C1356   1.408       .  A
C1355      H1366   1.083       .  S
C1356      C1357   1.407       .  A
C1357      C1358   1.404       .  A
C1357      H1367   1.083       .  S
C1358      H1368   1.082       .  S
C1369      C1370   1.404       .  A
C1369      C1374   1.407       .  A
C1370      C1371   1.394       .  A
C1370      H1383   1.083       .  S
C1371      C1372   1.404       .  A
C1371      H1384   1.083       .  S
C1372      C1373   1.411       .  A
C1372      C1375   1.494       .  S
C1373      C1374   1.408       .  A
C1373      H1385   1.080       .  S
C1374      H1386   1.083       .  S
C1375      C1376   1.350       .  D
C1375      H1387   1.086       .  S
C1376      C1377   1.494       .  S
C1376      H1388   1.084       .  S
C1377      C1378   1.406       .  A
C1377      C1382   1.407       .  A
C1378      C1379   1.406       .  A
C1378      H1389   1.083       .  S
C1379      C1380   1.408       .  A
C1379      H1390   1.083       .  S
C1380      C1381   1.405       .  A
C1381      C1382   1.396       .  A
C1381      H1391   1.083       .  S
C1382      H1392   1.082       .  S
C1393      C1394   1.405       .  A
C1393      C1398   1.405       .  A
C1394      C1395   1.396       .  A
C1394      H1407   1.083       .  S
C1395      C1396   1.402       .  A
C1395      H1408   1.083       .  S
C1396      C1397   1.407       .  A
C1396      C1399   1.480       .  S
C1397      C1398   1.395       .  A
C1397      H1409   1.082       .  S
C1398      H1410   1.083       .  S
C1399      C1400   1.345       .  D
C1399      H1411   1.085       .  S
C1400      C1401   1.482   1_556  S
C1400      H1412   1.086   1_556  S
C1401      C1402   1.403       .  A
C1401      C1406   1.407   1_554  A
C1402      C1403   1.397       .  A
C1402      H1413   1.083       .  S
C1403      C1404   1.405       .  A
C1403      H1414   1.083       .  S
C1404      C1405   1.404       .  A
C1405      C1406   1.394   1_554  A
C1405      H1415   1.083   1_554  S
C1406      H1416   1.081       .  S
C1417      C1418   1.406       .  A
C1417      C1422   1.407       .  A
C1418      C1419   1.401       .  A
C1418      H1431   1.083       .  S
C1419      C1420   1.405       .  A
C1419      H1432   1.084       .  S
C1420      C1421   1.408       .  A
C1420      C1423   1.491       .  S
C1421      C1422   1.401       .  A
C1421      H1433   1.081       .  S
C1422      H1434   1.083       .  S
C1423      C1424   1.349       .  D
C1423      H1435   1.087       .  S
C1424      C1425   1.491       .  S
C1424      H1436   1.086       .  S
C1425      C1426   1.405       .  A
C1425      C1430   1.407       .  A
C1426      C1427   1.403       .  A
C1426      H1437   1.083       .  S
C1427      C1428   1.407       .  A
C1427      H1438   1.083       .  S
C1428      C1429   1.406       .  A
C1429      C1430   1.399       .  A
C1429      H1439   1.083       .  S
C1430      H1440   1.082       .  S
C1441      C1442   1.407       .  A
C1441      C1446   1.406       .  A
C1442      C1443   1.400       .  A
C1442      H1455   1.083       .  S
C1443      C1444   1.404       .  A
C1443      H1456   1.084       .  S
C1444      C1445   1.409       .  A
C1444      C1447   1.491       .  S
C1445      C1446   1.400       .  A
C1445      H1457   1.081       .  S
C1446      H1458   1.083       .  S
C1447      C1448   1.349       .  D
C1447      H1459   1.086       .  S
C1448      C1449   1.489       .  S
C1448      H1460   1.085       .  S
C1449      C1450   1.408       .  A
C1449      C1454   1.403       .  A
C1450      C1451   1.403       .  A
C1450      H1461   1.082       .  S
C1451      C1452   1.407       .  A
C1451      H1462   1.083       .  S
C1452      C1453   1.406       .  A
C1453      C1454   1.398       .  A
C1453      H1463   1.083       .  S
C1454      H1464   1.084       .  S
C1465      C1466   1.403       .  A
C1465      C1470   1.407       .  A
C1466      C1467   1.394       .  A
C1466      H1479   1.083       .  S
C1467      C1468   1.403       .  A
C1467      H1480   1.084       .  S
C1468      C1469   1.412       .  A
C1468      C1471   1.495       .  S
C1469      C1470   1.409       .  A
C1469      H1481   1.081       .  S
C1470      H1482   1.083       .  S
C1471      C1472   1.350       .  D
C1471      H1483   1.086       .  S
C1472      C1473   1.496       .  S
C1472      H1484   1.085       .  S
C1473      C1474   1.406       .  A
C1473      C1478   1.408       .  A
C1474      C1475   1.405       .  A
C1474      H1485   1.083       .  S
C1475      C1476   1.407       .  A
C1475      H1486   1.083       .  S
C1476      C1477   1.406       .  A
C1477      C1478   1.398       .  A
C1477      H1487   1.083       .  S
C1478      H1488   1.082       .  S
C1489      C1490   1.405       .  A
C1489      C1494   1.406       .  A
C1490      C1491   1.395       .  A
C1490      H1503   1.083       .  S
C1491      C1492   1.402       .  A
C1491      H1504   1.084       .  S
C1492      C1493   1.406       .  A
C1492      C1495   1.481       .  S
C1493      C1494   1.398       .  A
C1493      H1505   1.082       .  S
C1494      H1506   1.083       .  S
C1495      C1496   1.346       .  D
C1495      H1507   1.086       .  S
C1496      C1497   1.480       .  S
C1496      H1508   1.086       .  S
C1497      C1498   1.401       .  A
C1497      C1502   1.406       .  A
C1498      C1499   1.395       .  A
C1498      H1509   1.084       .  S
C1499      C1500   1.406       .  A
C1499      H1510   1.083       .  S
C1500      C1501   1.405       .  A
C1501      C1502   1.397       .  A
C1501      H1511   1.083       .  S
C1502      H1512   1.082       .  S
C1513      C1514   1.403       .  A
C1513      C1518   1.404       .  A
C1514      C1515   1.394       .  A
C1514      H1527   1.084       .  S
C1515      C1516   1.403       .  A
C1515      H1528   1.083       .  S
C1516      C1517   1.412       .  A
C1516      C1519   1.492       .  S
C1517      C1518   1.404       .  A
C1517      H1529   1.080       .  S
C1518      H1530   1.084       .  S
C1519      C1520   1.348       .  D
C1519      H1531   1.082       .  S
C1520      C1521   1.493       .  S
C1520      H1532   1.083       .  S
C1521      C1522   1.403       .  A
C1521      C1526   1.412       .  A
C1522      C1523   1.396       .  A
C1522      H1533   1.083       .  S
C1523      C1524   1.404       .  A
C1523      H1534   1.084       .  S
C1524      C1525   1.403       .  A
C1525      C1526   1.402       .  A
C1525      H1535   1.083       .  S
C1526      H1536   1.080       .  S
C1537      C1538   1.404       .  A
C1537      C1542   1.404       .  A
C1538      C1539   1.401       .  A
C1538      H1551   1.083       .  S
C1539      C1540   1.406   1_556  A
C1539      H1552   1.083   1_556  S
C1540      C1541   1.408       .  A
C1540      C1543   1.489       .  S
C1541      C1542   1.396   1_554  A
C1541      H1553   1.081       .  S
C1542      H1554   1.083       .  S
C1543      C1544   1.349       .  D
C1543      H1555   1.085       .  S
C1544      C1545   1.488       .  S
C1544      H1556   1.084       .  S
C1545      C1546   1.405       .  A
C1545      C1550   1.408       .  A
C1546      C1547   1.399       .  A
C1546      H1557   1.083       .  S
C1547      C1548   1.404       .  A
C1547      H1558   1.083       .  S
C1548      C1549   1.405       .  A
C1549      C1550   1.398       .  A
C1549      H1559   1.083       .  S
C1550      H1560   1.081       .  S
C1561      C1562   1.405       .  A
C1561      C1566   1.405       .  A
C1562      C1563   1.397       .  A
C1562      H1575   1.083       .  S
C1563      C1564   1.404       .  A
C1563      H1576   1.084       .  S
C1564      C1565   1.409       .  A
C1564      C1567   1.490       .  S
C1565      C1566   1.401       .  A
C1565      H1577   1.082       .  S
C1566      H1578   1.083       .  S
C1567      C1568   1.349       .  D
C1567      H1579   1.085       .  S
C1568      C1569   1.490       .  S
C1568      H1580   1.085       .  S
C1569      C1570   1.403       .  A
C1569      C1574   1.409       .  A
C1570      C1571   1.397       .  A
C1570      H1581   1.083       .  S
C1571      C1572   1.405       .  A
C1571      H1582   1.083       .  S
C1572      C1573   1.406       .  A
C1573      C1574   1.402       .  A
C1573      H1583   1.083       .  S
C1574      H1584   1.082       .  S
C1585      C1586   1.406       .  A
C1585      C1590   1.407       .  A
C1586      C1587   1.401       .  A
C1586      H1599   1.083       .  S
C1587      C1588   1.405       .  A
C1587      H1600   1.083       .  S
C1588      C1589   1.410       .  A
C1588      C1591   1.496       .  S
C1589      C1590   1.404       .  A
C1589      H1601   1.081       .  S
C1590      H1602   1.083       .  S
C1591      C1592   1.352       .  D
C1591      H1603   1.086       .  S
C1592      C1593   1.495       .  S
C1592      H1604   1.085       .  S
C1593      C1594   1.404       .  A
C1593      C1598   1.409       .  A
C1594      C1595   1.400       .  A
C1594      H1605   1.084       .  S
C1595      C1596   1.407       .  A
C1595      H1606   1.083       .  S
C1596      C1597   1.408       .  A
C1597      C1598   1.404       .  A
C1597      H1607   1.083       .  S
C1598      H1608   1.082       .  S
C1609      C1610   1.407       .  A
C1609      C1614   1.407       .  A
C1610      C1611   1.401       .  A
C1610      H1623   1.083       .  S
C1611      C1612   1.404       .  A
C1611      H1624   1.083       .  S
C1612      C1613   1.410       .  A
C1612      C1615   1.498       .  S
C1613      C1614   1.406       .  A
C1613      H1625   1.081       .  S
C1614      H1626   1.083       .  S
C1615      C1616   1.352       .  D
C1615      H1627   1.084       .  S
C1616      C1617   1.498       .  S
C1616      H1628   1.085       .  S
C1617      C1618   1.404       .  A
C1617      C1622   1.411       .  A
C1618      C1619   1.400       .  A
C1618      H1629   1.083       .  S
C1619      C1620   1.407       .  A
C1619      H1630   1.083       .  S
C1620      C1621   1.408       .  A
C1621      C1622   1.407       .  A
C1621      H1631   1.083       .  S
C1622      H1632   1.081       .  S
C1633      C1634   1.405       .  A
C1633      C1638   1.406       .  A
C1634      C1635   1.396       .  A
C1634      H1647   1.083       .  S
C1635      C1636   1.403       .  A
C1635      H1648   1.083       .  S
C1636      C1637   1.412       .  A
C1636      C1639   1.495       .  S
C1637      C1638   1.407       .  A
C1637      H1649   1.081       .  S
C1638      H1650   1.083       .  S
C1639      C1640   1.349       .  D
C1639      H1651   1.085       .  S
C1640      C1641   1.496       .  S
C1640      H1652   1.085       .  S
C1641      C1642   1.402       .  A
C1641      C1646   1.413       .  A
C1642      C1643   1.397       .  A
C1642      H1653   1.084       .  S
C1643      C1644   1.407       .  A
C1643      H1654   1.083       .  S
C1644      C1645   1.405       .  A
C1645      C1646   1.407       .  A
C1645      H1655   1.083       .  S
C1646      H1656   1.081       .  S
C1657      C1658   1.407       .  A
C1657      C1662   1.406       .  A
C1658      C1659   1.396       .  A
C1658      H1671   1.083       .  S
C1659      C1660   1.401       .  A
C1659      H1672   1.083       .  S
C1660      C1661   1.411       .  A
C1660      C1663   1.493       .  S
C1661      C1662   1.408       .  A
C1661      H1673   1.082       .  S
C1662      H1674   1.083       .  S
C1663      C1664   1.348   1_556  D
C1663      H1675   1.085   1_556  S
C1664      C1665   1.494       .  S
C1664      H1676   1.086   1_554  S
C1665      C1666   1.403       .  A
C1665      C1670   1.411       .  A
C1666      C1667   1.397       .  A
C1666      H1677   1.083       .  S
C1667      C1668   1.406       .  A
C1667      H1678   1.083       .  S
C1668      C1669   1.406       .  A
C1669      C1670   1.407       .  A
C1669      H1679   1.083       .  S
C1670      H1680   1.082       .  S
C1681      C1682   1.406       .  A
C1681      C1686   1.406       .  A
C1682      C1683   1.397       .  A
C1682      H1695   1.083       .  S
C1683      C1684   1.403       .  A
C1683      H1696   1.083       .  S
C1684      C1685   1.407       .  A
C1684      C1687   1.484       .  S
C1685      C1686   1.399       .  A
C1685      H1697   1.082       .  S
C1686      H1698   1.083       .  S
C1687      C1688   1.349       .  D
C1687      H1699   1.084       .  S
C1688      C1689   1.489       .  S
C1688      H1700   1.085       .  S
C1689      C1690   1.404       .  A
C1689      C1694   1.408       .  A
C1690      C1691   1.400       .  A
C1690      H1701   1.083       .  S
C1691      C1692   1.406       .  A
C1691      H1702   1.083       .  S
C1692      C1693   1.405       .  A
C1693      C1694   1.397       .  A
C1693      H1703   1.083       .  S
C1694      H1704   1.081       .  S
C1705      C1706   1.403       .  A
C1705      C1710   1.405       .  A
C1706      C1707   1.394       .  A
C1706      H1719   1.083       .  S
C1707      C1708   1.404       .  A
C1707      H1720   1.083       .  S
C1708      C1709   1.410       .  A
C1708      C1711   1.490       .  S
C1709      C1710   1.403       .  A
C1709      H1721   1.080       .  S
C1710      H1722   1.083       .  S
C1711      C1712   1.350   1_545  D
C1711      H1723   1.086       .  S
C1712      C1713   1.489       .  S
C1712      H1724   1.083   1_565  S
C1713      C1714   1.405       .  A
C1713      C1718   1.406       .  A
C1714      C1715   1.404       .  A
C1714      H1725   1.083       .  S
C1715      C1716   1.406       .  A
C1715      H1726   1.083       .  S
C1716      C1717   1.406       .  A
C1717      C1718   1.394       .  A
C1717      H1727   1.083       .  S
C1718      H1728   1.082       .  S
C1729      C1730   1.404       .  A
C1729      C1734   1.408       .  A
C1730      C1731   1.399       .  A
C1730      H1743   1.083       .  S
C1731      C1732   1.405       .  A
C1731      H1744   1.083       .  S
C1732      C1733   1.407       .  A
C1732      C1735   1.490       .  S
C1733      C1734   1.400       .  A
C1733      H1745   1.081       .  S
C1734      H1746   1.083       .  S
C1735      C1736   1.351       .  D
C1735      H1747   1.085       .  S
C1736      C1737   1.491       .  S
C1736      H1748   1.085       .  S
C1737      C1738   1.405       .  A
C1737      C1742   1.407       .  A
C1738      C1739   1.402       .  A
C1738      H1749   1.083       .  S
C1739      C1740   1.406       .  A
C1739      H1750   1.083       .  S
C1740      C1741   1.406       .  A
C1741      C1742   1.398       .  A
C1741      H1751   1.083       .  S
C1742      H1752   1.082       .  S
C1753      C1754   1.406       .  A
C1753      C1758   1.408       .  A
C1754      C1755   1.393       .  A
C1754      H1767   1.083       .  S
C1755      C1756   1.402       .  A
C1755      H1768   1.084       .  S
C1756      C1757   1.412       .  A
C1756      C1759   1.494   1_565  S
C1757      C1758   1.411       .  A
C1757      H1769   1.081       .  S
C1758      H1770   1.083       .  S
C1759      C1760   1.351       .  D
C1759      H1771   1.086       .  S
C1760      C1761   1.497       .  S
C1760      H1772   1.085       .  S
C1761      C1762   1.407       .  A
C1761      C1766   1.407       .  A
C1762      C1763   1.407       .  A
C1762      H1773   1.083       .  S
C1763      C1764   1.407       .  A
C1763      H1774   1.083       .  S
C1764      C1765   1.407       .  A
C1765      C1766   1.396       .  A
C1765      H1775   1.083       .  S
C1766      H1776   1.082       .  S
C1777      C1778   1.408       .  A
C1777      C1782   1.406       .  A
C1778      C1779   1.404       .  A
C1778      H1791   1.083       .  S
C1779      C1780   1.404       .  A
C1779      H1792   1.083       .  S
C1780      C1781   1.405       .  A
C1780      C1783   1.487       .  S
C1781      C1782   1.395       .  A
C1781      H1793   1.083       .  S
C1782      H1794   1.083       .  S
C1783      C1784   1.346       .  D
C1783      H1795   1.085       .  S
C1784      C1785   1.482   1_554  S
C1784      H1796   1.087       .  S
C1785      C1786   1.399       .  A
C1785      C1790   1.408       .  A
C1786      C1787   1.391       .  A
C1786      H1797   1.084       .  S
C1787      C1788   1.406       .  A
C1787      H1798   1.083       .  S
C1788      C1789   1.408       .  A
C1789      C1790   1.408       .  A
C1789      H1799   1.083       .  S
C1790      H1800   1.083       .  S
C1801      C1802   1.404       .  A
C1801      C1806   1.404       .  A
C1802      C1803   1.396       .  A
C1802      H1815   1.083       .  S
C1803      C1804   1.407       .  A
C1803      H1816   1.081       .  S
C1804      C1805   1.405       .  A
C1804      C1807   1.487       .  S
C1805      C1806   1.401       .  A
C1805      H1817   1.083       .  S
C1806      H1818   1.083       .  S
C1807      C1808   1.349       .  D
C1807      H1819   1.085       .  S
C1808      C1809   1.488       .  S
C1808      H1820   1.085       .  S
C1809      C1810   1.406       .  A
C1809      C1814   1.406       .  A
C1810      C1811   1.402       .  A
C1810      H1821   1.083       .  S
C1811      C1812   1.405       .  A
C1811      H1822   1.083       .  S
C1812      C1813   1.405       .  A
C1813      C1814   1.395       .  A
C1813      H1823   1.083       .  S
C1814      H1824   1.081       .  S
C1825      C1826   1.406       .  A
C1825      C1830   1.407       .  A
C1826      C1827   1.402       .  A
C1826      H1839   1.083       .  S
C1827      C1828   1.406       .  A
C1827      H1840   1.083       .  S
C1828      C1829   1.409       .  A
C1828      C1831   1.496       .  S
C1829      C1830   1.402       .  A
C1829      H1841   1.081       .  S
C1830      H1842   1.083       .  S
C1831      C1832   1.352       .  D
C1831      H1843   1.085       .  S
C1832      C1833   1.495       .  S
C1832      H1844   1.085       .  S
C1833      C1834   1.405       .  A
C1833      C1838   1.409       .  A
C1834      C1835   1.401       .  A
C1834      H1845   1.083       .  S
C1835      C1836   1.405       .  A
C1835      H1846   1.083       .  S
C1836      C1837   1.408       .  A
C1837      C1838   1.403       .  A
C1837      H1847   1.083       .  S
C1838      H1848   1.081       .  S
C1849      C1850   1.406       .  A
C1849      C1854   1.407       .  A
C1850      C1851   1.400       .  A
C1850      H1863   1.083       .  S
C1851      C1852   1.404       .  A
C1851      H1864   1.083       .  S
C1852      C1853   1.410       .  A
C1852      C1855   1.495       .  S
C1853      C1854   1.405       .  A
C1853      H1865   1.082       .  S
C1854      H1866   1.083       .  S
C1855      C1856   1.351       .  D
C1855      H1867   1.086       .  S
C1856      C1857   1.495       .  S
C1856      H1868   1.085       .  S
C1857      C1858   1.404       .  A
C1857      C1862   1.410       .  A
C1858      C1859   1.399       .  A
C1858      H1869   1.083       .  S
C1859      C1860   1.406       .  A
C1859      H1870   1.083       .  S
C1860      C1861   1.407       .  A
C1861      C1862   1.406       .  A
C1861      H1871   1.083       .  S
C1862      H1872   1.082       .  S
C1873      C1874   1.405       .  A
C1873      C1878   1.405       .  A
C1874      C1875   1.393       .  A
C1874      H1887   1.083       .  S
C1875      C1876   1.401       .  A
C1875      H1888   1.084       .  S
C1876      C1877   1.406       .  A
C1876      C1879   1.477       .  S
C1877      C1878   1.397       .  A
C1877      H1889   1.082       .  S
C1878      H1890   1.083       .  S
C1879      C1880   1.345       .  D
C1879      H1891   1.086       .  S
C1880      C1881   1.479       .  S
C1880      H1892   1.086       .  S
C1881      C1882   1.402       .  A
C1881      C1886   1.406       .  A
C1882      C1883   1.396       .  A
C1882      H1893   1.084       .  S
C1883      C1884   1.405       .  A
C1883      H1894   1.083       .  S
C1884      C1885   1.404       .  A
C1885      C1886   1.394       .  A
C1885      H1895   1.083       .  S
C1886      H1896   1.082       .  S
C1897      C1898   1.406       .  A
C1897      C1902   1.407       .  A
C1898      C1899   1.400       .  A
C1898      H1911   1.083       .  S
C1899      C1900   1.404       .  A
C1899      H1912   1.083       .  S
C1900      C1901   1.409       .  A
C1900      C1903   1.493       .  S
C1901      C1902   1.403       .  A
C1901      H1913   1.081       .  S
C1902      H1914   1.083       .  S
C1903      C1904   1.351       .  D
C1903      H1915   1.084       .  S
C1904      C1905   1.495       .  S
C1904      H1916   1.086       .  S
C1905      C1906   1.404       .  A
C1905      C1910   1.410       .  A
C1906      C1907   1.399       .  A
C1906      H1917   1.084       .  S
C1907      C1908   1.407       .  A
C1907      H1918   1.083       .  S
C1908      C1909   1.406       .  A
C1909      C1910   1.403       .  A
C1909      H1919   1.083       .  S
C1910      H1920   1.081       .  S
C1921      C1922   1.405       .  A
C1921      C1926   1.407       .  A
C1922      C1923   1.400       .  A
C1922      H1935   1.083       .  S
C1923      C1924   1.406       .  A
C1923      H1936   1.083       .  S
C1924      C1925   1.410       .  A
C1924      C1927   1.497       .  S
C1925      C1926   1.403       .  A
C1925      H1937   1.080       .  S
C1926      H1938   1.083       .  S
C1927      C1928   1.351       .  D
C1927      H1939   1.086       .  S
C1928      C1929   1.493       .  S
C1928      H1940   1.084       .  S
C1929      C1930   1.404       .  A
C1929      C1934   1.410       .  A
C1930      C1931   1.398       .  A
C1930      H1941   1.083       .  S
C1931      C1932   1.404       .  A
C1931      H1942   1.083       .  S
C1932      C1933   1.406       .  A
C1933      C1934   1.405       .  A
C1933      H1943   1.083       .  S
C1934      H1944   1.082       .  S
C1945      C1946   1.405       .  A
C1945      C1950   1.404       .  A
C1946      C1947   1.396       .  A
C1946      H1959   1.083       .  S
C1947      C1948   1.402       .  A
C1947      H1960   1.083       .  S
C1948      C1949   1.408       .  A
C1948      C1951   1.481       .  S
C1949      C1950   1.396       .  A
C1949      H1961   1.081       .  S
C1950      H1962   1.083       .  S
C1951      C1952   1.344       .  D
C1951      H1963   1.085       .  S
C1952      C1953   1.482       .  S
C1952      H1964   1.086       .  S
C1953      C1954   1.403       .  A
C1953      C1958   1.408       .  A
C1954      C1955   1.397       .  A
C1954      H1965   1.083       .  S
C1955      C1956   1.405       .  A
C1955      H1966   1.083       .  S
C1956      C1957   1.404       .  A
C1957      C1958   1.395       .  A
C1957      H1967   1.083       .  S
C1958      H1968   1.081       .  S
C1969      C1970   1.405       .  A
C1969      C1974   1.405       .  A
C1970      C1971   1.396       .  A
C1970      H1983   1.083       .  S
C1971      C1972   1.403       .  A
C1971      H1984   1.083       .  S
C1972      C1973   1.412       .  A
C1972      C1975   1.495       .  S
C1973      C1974   1.407       .  A
C1973      H1985   1.081       .  S
C1974      H1986   1.083       .  S
C1975      C1976   1.349       .  D
C1975      H1987   1.084       .  S
C1976      C1977   1.496       .  S
C1976      H1988   1.084       .  S
C1977      C1978   1.403       .  A
C1977      C1982   1.412       .  A
C1978      C1979   1.397       .  A
C1978      H1989   1.083       .  S
C1979      C1980   1.405       .  A
C1979      H1990   1.083       .  S
C1980      C1981   1.406       .  A
C1981      C1982   1.406       .  A
C1981      H1991   1.083       .  S
C1982      H1992   1.081       .  S
C1993      C1994   1.407       .  A
C1993      C1998   1.407       .  A
C1994      C1995   1.405       .  A
C1994      H2007   1.083       .  S
C1995      C1996   1.405       .  A
C1995      H2008   1.083       .  S
C1996      C1997   1.404       .  A
C1996      C1999   1.488       .  S
C1997      C1998   1.395       .  A
C1997      H2009   1.083       .  S
C1998      H2010   1.083       .  S
C1999      C2000   1.346       .  D
C1999      H2011   1.086       .  S
C2000      C2001   1.482       .  S
C2000      H2012   1.087       .  S
C2001      C2002   1.400       .  A
C2001      C2006   1.407       .  A
C2002      C2003   1.394       .  A
C2002      H2013   1.084       .  S
C2003      C2004   1.406       .  A
C2003      H2014   1.083       .  S
C2004      C2005   1.408       .  A
C2005      C2006   1.407       .  A
C2005      H2015   1.083       .  S
C2006      H2016   1.083       .  S
C2017      C2018   1.406       .  A
C2017      C2022   1.406   1_554  A
C2018      C2019   1.401       .  A
C2018      H2031   1.083       .  S
C2019      C2020   1.405   1_554  A
C2019      H2032   1.083       .  S
C2020      C2021   1.408       .  A
C2020      C2023   1.491       .  S
C2021      C2022   1.399       .  A
C2021      H2033   1.081       .  S
C2022      H2034   1.083       .  S
C2023      C2024   1.351       .  D
C2023      H2035   1.085       .  S
C2024      C2025   1.490       .  S
C2024      H2036   1.085       .  S
C2025      C2026   1.405       .  A
C2025      C2030   1.407       .  A
C2026      C2027   1.400       .  A
C2026      H2037   1.083       .  S
C2027      C2028   1.405       .  A
C2027      H2038   1.083       .  S
C2028      C2029   1.407       .  A
C2029      C2030   1.400       .  A
C2029      H2039   1.083       .  S
C2030      H2040   1.081       .  S
C2041      C2042   1.404       .  A
C2041      C2046   1.406       .  A
C2042      C2043   1.393       .  A
C2042      H2055   1.084   1_554  S
C2043      C2044   1.403       .  A
C2043      H2056   1.084   1_554  S
C2044      C2045   1.411       .  A
C2044      C2047   1.491       .  S
C2045      C2046   1.407       .  A
C2045      H2057   1.081       .  S
C2046      H2058   1.083       .  S
C2047      C2048   1.350   1_565  D
C2047      H2059   1.085   1_554  S
C2048      C2049   1.494       .  S
C2048      H2060   1.084       .  S
C2049      C2050   1.406       .  A
C2049      C2054   1.407       .  A
C2050      C2051   1.405       .  A
C2050      H2061   1.083       .  S
C2051      C2052   1.407       .  A
C2051      H2062   1.083       .  S
C2052      C2053   1.406       .  A
C2053      C2054   1.396       .  A
C2053      H2063   1.083       .  S
C2054      H2064   1.082       .  S
C2065      C2066   1.407       .  A
C2065      C2070   1.405       .  A
C2066      C2067   1.401       .  A
C2066      H2079   1.083       .  S
C2067      C2068   1.404       .  A
C2067      H2080   1.083       .  S
C2068      C2069   1.408       .  A
C2068      C2071   1.489       .  S
C2069      C2070   1.398       .  A
C2069      H2081   1.081       .  S
C2070      H2082   1.083       .  S
C2071      C2072   1.347       .  D
C2071      H2083   1.086       .  S
C2072      C2073   1.488       .  S
C2072      H2084   1.086       .  S
C2073      C2074   1.403       .  A
C2073      C2078   1.408       .  A
C2074      C2075   1.399       .  A
C2074      H2085   1.083       .  S
C2075      C2076   1.405       .  A
C2075      H2086   1.083       .  S
C2076      C2077   1.407       .  A
C2077      C2078   1.401       .  A
C2077      H2087   1.083       .  S
C2078      H2088   1.082       .  S
C2089      C2090   1.405       .  A
C2089      C2094   1.404       .  A
C2090      C2091   1.396       .  A
C2090      H2103   1.083       .  S
C2091      C2092   1.402       .  A
C2091      H2104   1.083       .  S
C2092      C2093   1.408       .  A
C2092      C2095   1.482       .  S
C2093      C2094   1.397       .  A
C2093      H2105   1.081       .  S
C2094      H2106   1.083       .  S
C2095      C2096   1.344       .  D
C2095      H2107   1.086       .  S
C2096      C2097   1.481       .  S
C2096      H2108   1.085       .  S
C2097      C2098   1.401       .  A
C2097      C2102   1.408       .  A
C2098      C2099   1.396       .  A
C2098      H2109   1.083       .  S
C2099      C2100   1.406       .  A
C2099      H2110   1.083   1_556  S
C2100      C2101   1.403       .  A
C2101      C2102   1.396       .  A
C2101      H2111   1.083       .  S
C2102      H2112   1.082       .  S
C2113      C2114   1.406       .  A
C2113      C2118   1.406       .  A
C2114      C2115   1.400       .  A
C2114      H2127   1.083       .  S
C2115      C2116   1.404       .  A
C2115      H2128   1.083       .  S
C2116      C2117   1.409       .  A
C2116      C2119   1.493       .  S
C2117      C2118   1.401       .  A
C2117      H2129   1.081       .  S
C2118      H2130   1.083       .  S
C2119      C2120   1.351       .  D
C2119      H2131   1.084       .  S
C2120      C2121   1.493       .  S
C2120      H2132   1.084       .  S
C2121      C2122   1.404       .  A
C2121      C2126   1.409       .  A
C2122      C2123   1.400       .  A
C2122      H2133   1.083       .  S
C2123      C2124   1.406       .  A
C2123      H2134   1.083       .  S
C2124      C2125   1.407       .  A
C2125      C2126   1.402       .  A
C2125      H2135   1.083       .  S
C2126      H2136   1.081       .  S
C2137      C2138   1.405       .  A
C2137      C2142   1.408       .  A
C2138      C2139   1.392       .  A
C2138      H2151   1.083       .  S
C2139      C2140   1.402       .  A
C2139      H2152   1.084       .  S
C2140      C2141   1.413       .  A
C2140      C2143   1.495       .  S
C2141      C2142   1.411       .  A
C2141      H2153   1.081       .  S
C2142      H2154   1.083       .  S
C2143      C2144   1.350   1_565  D
C2143      H2155   1.086   1_565  S
C2144      C2145   1.495       .  S
C2144      H2156   1.084       .  S
C2145      C2146   1.405       .  A
C2145      C2150   1.408       .  A
C2146      C2147   1.405       .  A
C2146      H2157   1.083       .  S
C2147      C2148   1.407       .  A
C2147      H2158   1.083       .  S
C2148      C2149   1.406       .  A
C2149      C2150   1.398       .  A
C2149      H2159   1.083       .  S
C2150      H2160   1.082       .  S
C2161      C2162   1.406       .  A
C2161      C2166   1.406       .  A
C2162      C2163   1.400       .  A
C2162      H2175   1.083       .  S
C2163      C2164   1.404       .  A
C2163      H2176   1.083       .  S
C2164      C2165   1.409       .  A
C2164      C2167   1.492       .  S
C2165      C2166   1.402       .  A
C2165      H2177   1.082       .  S
C2166      H2178   1.083       .  S
C2167      C2168   1.349       .  D
C2167      H2179   1.085       .  S
C2168      C2169   1.494       .  S
C2168      H2180   1.086       .  S
C2169      C2170   1.405       .  A
C2169      C2174   1.410       .  A
C2170      C2171   1.399       .  A
C2170      H2181   1.083       .  S
C2171      C2172   1.406       .  A
C2171      H2182   1.083       .  S
C2172      C2173   1.406       .  A
C2173      C2174   1.402       .  A
C2173      H2183   1.083       .  S
C2174      H2184   1.080       .  S
C2185      C2186   1.405       .  A
C2185      C2190   1.404       .  A
C2186      C2187   1.401       .  A
C2186      H2199   1.083       .  S
C2187      C2188   1.404       .  A
C2187      H2200   1.083       .  S
C2188      C2189   1.406       .  A
C2188      C2191   1.484       .  S
C2189      C2190   1.396       .  A
C2189      H2201   1.082       .  S
C2190      H2202   1.083       .  S
C2191      C2192   1.347       .  D
C2191      H2203   1.086       .  S
C2192      C2193   1.484       .  S
C2192      H2204   1.086       .  S
C2193      C2194   1.404       .  A
C2193      C2198   1.405       .  A
C2194      C2195   1.401       .  A
C2194      H2205   1.083       .  S
C2195      C2196   1.405       .  A
C2195      H2206   1.083       .  S
C2196      C2197   1.406       .  A
C2197      C2198   1.395       .  A
C2197      H2207   1.083       .  S
C2198      H2208   1.082       .  S
C2209      C2210   1.405       .  A
C2209      C2214   1.404       .  A
C2210      C2211   1.401       .  A
C2210      H2223   1.083       .  S
C2211      C2212   1.405       .  A
C2211      H2224   1.083       .  S
C2212      C2213   1.406       .  A
C2212      C2215   1.485       .  S
C2213      C2214   1.394       .  A
C2213      H2225   1.081       .  S
C2214      H2226   1.083       .  S
C2215      C2216   1.347       .  D
C2215      H2227   1.085       .  S
C2216      C2217   1.485       .  S
C2216      H2228   1.086       .  S
C2217      C2218   1.404       .  A
C2217      C2222   1.407       .  A
C2218      C2219   1.399       .  A
C2218      H2229   1.083       .  S
C2219      C2220   1.404       .  A
C2219      H2230   1.083       .  S
C2220      C2221   1.405       .  A
C2221      C2222   1.396       .  A
C2221      H2231   1.083       .  S
C2222      H2232   1.081       .  S
C2233      C2234   1.405       .  A
C2233      C2238   1.406       .  A
C2234      C2235   1.396       .  A
C2234      H2247   1.083       .  S
C2235      C2236   1.402       .  A
C2235      H2248   1.084       .  S
C2236      C2237   1.407       .  A
C2236      C2239   1.483       .  S
C2237      C2238   1.398       .  A
C2237      H2249   1.082       .  S
C2238      H2250   1.083       .  S
C2239      C2240   1.347       .  D
C2239      H2251   1.085       .  S
C2240      C2241   1.484       .  S
C2240      H2252   1.086       .  S
C2241      C2242   1.403       .  A
C2241      C2246   1.408       .  A
C2242      C2243   1.395       .  A
C2242      H2253   1.084       .  S
C2243      C2244   1.405       .  A
C2243      H2254   1.083       .  S
C2244      C2245   1.405       .  A
C2245      C2246   1.398       .  A
C2245      H2255   1.083       .  S
C2246      H2256   1.082       .  S
