geometry optimzed in LAMMPS
_audit_creation_date              2020-11-30 
_audit_creation_method            'lammps2cif' 
_symmetry_space_group_name_H-M    'P1' 
_symmetry_Int_Tables_number       1 
_symmetry_cell_setting            triclinic 
loop_ 
_symmetry_equiv_pos_as_xyz 
  x,y,z 
_cell_length_a                    25.998420247596396 
_cell_length_b                    26.020669487648867 
_cell_length_c                    41.99586321302804 
_cell_angle_alpha                 89.24538999060498 
_cell_angle_beta                  89.74154370441364 
_cell_angle_gamma                 90.79915121920988 
loop_ 
_atom_site_label 
_atom_site_type_symbol 
_atom_site_fract_x 
_atom_site_fract_y 
_atom_site_fract_z 
_atom_site_charge 
Fe1        Fe  0.63798300  0.93113704  0.39041577     1.65780
Fe2        Fe  0.74268322  0.90112172  0.34962594     1.73250
Fe3        Fe  0.65155496  0.81219530  0.36639858     1.54410
O4          O  0.63711833  0.81825828  0.41760033    -0.82620
O5          O  0.73890335  0.85190919  0.31094270    -0.80920
O6          O  0.65975640  0.89931558  0.43175660    -0.85120
O7          O  0.57865986  0.87984909  0.39279692    -0.79980
O8          O  0.72174810  0.78025883  0.38017102    -0.81750
O9          O  0.70244865  0.95612465  0.32380622    -0.84500
C10         C  0.55854695  0.87837023  0.36637369     0.96270
C11         C  0.65082002  0.85210910  0.43866478     1.03710
O12         O  0.67982865  0.88071789  0.36880102    -1.13480
O13         O  0.76005218  0.94833419  0.38691801    -0.75910
O14         O  0.68892430  0.99057738  0.39298055    -0.79400
O15         O  0.58006681  0.84654725  0.34798116    -0.80090
C16         C  0.73689789  0.98902854  0.39321154     0.95170
O17         O  0.62265949  0.95708912  0.34523606    -0.78050
O18         O  0.77872482  0.84624726  0.37469681    -0.83240
C19         C  0.71395210  0.81203718  0.30235780     0.97790
C20         C  0.76711315  0.79996001  0.38182661     1.03710
O21         O  0.67453347  0.79605951  0.31844967    -0.78880
C22         C  0.65360443  0.96167788  0.32184824     1.02010
Fe23       Fe  0.67720928  0.93563021  0.62830080     1.65780
Fe24       Fe  0.76361945  0.87751637  0.67046936     1.73250
Fe25       Fe  0.66550484  0.80859456  0.64217210     1.54410
O26         O  0.58969696  0.84312069  0.65199276    -0.82620
O27         O  0.79414572  0.84763871  0.63100163    -0.80920
O28         O  0.60511832  0.92560828  0.63952634    -0.85120
O29         O  0.66771183  0.90424929  0.58362587    -0.79980
O30         O  0.67483662  0.78528458  0.69062890    -0.81750
O31         O  0.78361024  0.95284894  0.65773194    -0.84500
C32         C  0.66037168  0.85828344  0.57442942     0.96270
C33         C  0.57510250  0.89062508  0.64846147     1.03710
O34         O  0.69963241  0.87329882  0.64747229    -1.13480
O35         O  0.72323272  0.90658771  0.70550766    -0.75910
O36         O  0.68165427  0.96490584  0.67545787    -0.79400
O37         O  0.65557845  0.82030435  0.59358682    -0.80090
C38         C  0.68762163  0.93914481  0.70175313     0.95170
O39         O  0.74845554  0.95239043  0.61199966    -0.78050
O40         O  0.75759630  0.80423567  0.69192365    -0.83240
C41         C  0.78608333  0.80016563  0.62631416     0.97790
C42         C  0.71967747  0.77739890  0.70201100     1.03710
O43         O  0.74139886  0.77788543  0.63116240    -0.78880
C44         C  0.77550401  0.97515978  0.63158925     1.02010
Fe45       Fe  0.34884885  0.00003070  0.38413005     1.65780
Fe46       Fe  0.24636603  0.03158962  0.33994992     1.73250
Fe47       Fe  0.33821551  0.11955722  0.35764749     1.54420
O48         O  0.36031618  0.11315609  0.40696273    -0.82620
O49         O  0.25353214  0.08106470  0.30095254    -0.80920
O50         O  0.33071544  0.03610939  0.42463544    -0.85120
O51         O  0.41290459  0.04452993  0.38208152    -0.79980
O52         O  0.26856227  0.14880992  0.37401490    -0.81750
O53         O  0.28862186  0.97694415  0.31666936    -0.84500
C54         C  0.43197270  0.05456087  0.35546527     0.96270
C55         C  0.34956230  0.08066257  0.42966950     1.03710
O56         O  0.30882352  0.05093782  0.36084142    -1.13480
O57         O  0.22202619  0.98030402  0.37488955    -0.75910
O58         O  0.29407778  0.94487169  0.39035457    -0.79400
O59         O  0.40832970  0.08732020  0.33832496    -0.80090
C60         C  0.24649779  0.94294652  0.38620423     0.95170
O61         O  0.36543619  0.96884241  0.34172894    -0.78050
O62         O  0.20863828  0.08756337  0.36316614    -0.83240
C63         C  0.27794442  0.12180759  0.29305460     0.97790
C64         C  0.22214672  0.13124885  0.37393448     1.03710
O65         O  0.31434849  0.13889700  0.31053187    -0.78880
C66         C  0.33651799  0.96611510  0.31751375     1.02010
Fe67       Fe  0.30945771  0.00282135  0.61173405     1.65780
Fe68       Fe  0.22228924  0.06086614  0.65173415     1.73250
Fe69       Fe  0.32948768  0.12501571  0.63189487     1.54410
O70         O  0.39950718  0.08289907  0.64712133    -0.82620
O71         O  0.19951228  0.09515057  0.61095619    -0.80920
O72         O  0.38164109  0.00799879  0.62447012    -0.85120
O73         O  0.32463547  0.03882376  0.56929579    -0.79980
O74         O  0.30802557  0.14600524  0.68002820    -0.81750
O75         O  0.20165572  0.98528880  0.63928962    -0.84500
C76         C  0.34371627  0.08311986  0.56315442     0.96270
C77         C  0.41205159  0.03620324  0.63941874     1.03710
O78         O  0.28908624  0.06368183  0.63185918    -1.13480
O79         O  0.25964201  0.02995700  0.68819688    -0.75910
O80         O  0.29943761  0.97103974  0.65785149    -0.79400
O81         O  0.35201371  0.11667194  0.58441668    -0.80090
C82         C  0.29253224  0.99466734  0.68440935     0.95170
O83         O  0.23804477  0.99011548  0.59393569    -0.78050
O84         O  0.22611482  0.13294487  0.67206771    -0.83240
C85         C  0.21519776  0.14121828  0.60516929     0.97790
C86         C  0.26123005  0.15146256  0.68931458     1.03710
O87         O  0.25979687  0.15963040  0.61418772    -0.78880
C88         C  0.21193040  0.96439278  0.61327012     1.02010
Fe89       Fe  0.65529339  0.99920676  0.89346263     1.65780
Fe90       Fe  0.75251252  0.03805094  0.84519320     1.73250
Fe91       Fe  0.66112546  0.11927903  0.86786448     1.54420
O92         O  0.58899356  0.08048971  0.85292516    -0.82620
O93         O  0.79202687  0.09043003  0.87167306    -0.80920
O94         O  0.59220102  0.04282807  0.89745319    -0.85120
O95         O  0.67930686  0.03372265  0.93371866    -0.79980
O96         O  0.67617292  0.14065523  0.81915324    -0.81750
O97         O  0.77857362  0.97962844  0.87446511    -0.84500
C98         C  0.66669313  0.07984496  0.93976654     0.96270
C99         C  0.56976737  0.04605471  0.87172783     1.03710
O100        O  0.69256957  0.05261686  0.86938171    -1.13480
O101        O  0.70604147  0.98868895  0.81942069    -0.75910
O102        O  0.63465684  0.97051666  0.84945791    -0.79400
O103        O  0.64943381  0.11135154  0.91839814    -0.80090
C104        C  0.65960832  0.97181466  0.82308539     0.95170
O105        O  0.70926733  0.94443403  0.89616325    -0.78050
O106        O  0.74466367  0.09407817  0.81014939    -0.83240
C107        C  0.77958031  0.13527166  0.88086432     0.97790
C108        C  0.71529204  0.13018910  0.80193344     1.03710
O109        O  0.73342368  0.15303510  0.87990864    -0.78880
C110        C  0.75539832  0.94233038  0.88799793     1.02010
Fe111      Fe  0.64061966  0.99732804  0.12134524     1.65780
Fe112      Fe  0.74485584  0.02466221  0.16603746     1.73250
Fe113      Fe  0.66062557  0.11302791  0.14578543     1.54420
O114        O  0.64674128  0.11054409  0.09546134    -0.82620
O115        O  0.75290812  0.09119429  0.19460781    -0.80920
O116        O  0.66278548  0.02989874  0.07934245    -0.85120
O117        O  0.58466317  0.05000404  0.11930496    -0.79980
O118        O  0.73743478  0.13678284  0.13194326    -0.81750
O119        O  0.69623545  0.98954007  0.19757743    -0.84500
C120        C  0.56368920  0.04952159  0.14533115     0.96270
C121        C  0.65690786  0.07774608  0.07359333     1.03710
O122        O  0.68522607  0.04437955  0.14333723    -1.13480
O123        O  0.75630679  0.95515708  0.14355259    -0.75910
O124        O  0.68738494  0.93862346  0.11494051    -0.79400
O125        O  0.58569913  0.08077758  0.16415764    -0.80090
C126        C  0.73033773  0.92669489  0.12534225     0.95170
O127        O  0.62477292  0.97009831  0.16810025    -0.78050
O128        O  0.78253145  0.06263344  0.13119796    -0.83240
C129        C  0.72346292  0.12615453  0.20457083     0.97790
C130        C  0.77916470  0.11093389  0.12689977     1.03710
O131        O  0.67811807  0.12893071  0.19361950    -0.78880
C132        C  0.64946463  0.97406696  0.19455269     1.02010
Fe133      Fe  0.34565539  0.92829936  0.87114538     1.65780
Fe134      Fe  0.23937197  0.87263706  0.85067164     1.73250
Fe135      Fe  0.33517897  0.79993261  0.87378329     1.54420
O136        O  0.41533976  0.82981962  0.86647384    -0.82620
O137        O  0.22143043  0.84303022  0.89377494    -0.80920
O138        O  0.39089336  0.89488171  0.83921357    -0.85120
O139        O  0.37716826  0.89775985  0.91398985    -0.79980
O140        O  0.32254461  0.77590043  0.82608633    -0.81750
O141        O  0.22926036  0.94566540  0.86929197    -0.84500
C142        C  0.36094346  0.86050006  0.93194850     0.96270
C143        C  0.42692251  0.87231348  0.85168426     1.03710
O144        O  0.30654465  0.86711979  0.86565995    -1.13480
O145        O  0.26553186  0.90167995  0.80939980    -0.75910
O146        O  0.31586381  0.96166606  0.83073515    -0.79400
O147        O  0.34169046  0.81988488  0.92023195    -0.80090
C148        C  0.29943017  0.93667683  0.80692621     0.95170
O149        O  0.29519635  0.96456871  0.89990137    -0.78050
O150        O  0.24082652  0.80052645  0.82718105    -0.83240
C151        C  0.21822649  0.79531007  0.89195155     0.97790
C152        C  0.27614956  0.77237670  0.81546363     1.03710
O153        O  0.25858088  0.76937149  0.88474317    -0.78880
C154        C  0.25155411  0.97527360  0.88905149     1.02010
Fe155      Fe  0.35194888  0.94793790  0.12173576     1.65780
Fe156      Fe  0.24374515  0.92325610  0.16409328     1.73250
Fe157      Fe  0.31936334  0.82749662  0.13931785     1.54420
O158        O  0.34060262  0.84056081  0.08983666    -0.82620
O159        O  0.24110842  0.86375793  0.19895996    -0.80920
O160        O  0.33040494  0.92453669  0.07799232    -0.85120
O161        O  0.40668312  0.89443646  0.11901463    -0.79980
O162        O  0.24329515  0.81012547  0.12340898    -0.81750
O163        O  0.29312533  0.96566427  0.19164705    -0.84500
C164        C  0.42355636  0.87865976  0.14482610     0.96270
C165        C  0.33745627  0.87831953  0.06947239     1.03710
O166        O  0.30230078  0.89953284  0.14107033    -1.13480
O167        O  0.23033622  0.98543970  0.13359368    -0.75910
O168        O  0.30820824  0.01093809  0.11922709    -0.79400
O169        O  0.39458067  0.84660449  0.15982139    -0.80090
C170        C  0.26114111  0.01885057  0.12198463     0.95170
O171        O  0.37114484  0.96676155  0.16704055    -0.78050
O172        O  0.19802467  0.88003920  0.13619428    -0.83240
C173        C  0.26072304  0.81974943  0.20423893     0.97790
C174        C  0.20087420  0.83543397  0.12462257     1.03710
O175        O  0.29562112  0.80313155  0.18571127    -0.78880
C176        C  0.34223063  0.96959671  0.19147850     1.02010
Fe177      Fe  0.01902976  0.61944750  0.38551273     1.65780
Fe178      Fe  0.06416281  0.73037098  0.35723127     1.73250
Fe179      Fe  0.14391482  0.63328276  0.37158664     1.54420
O180        O  0.12587520  0.61331013  0.42125119    -0.82620
O181        O  0.12071017  0.73120951  0.32203041    -0.80920
O182        O  0.04201973  0.63208047  0.43025088    -0.85120
O183        O  0.06133743  0.55601060  0.38899738    -0.79980
O184        O  0.17741528  0.70068252  0.38883565    -0.81750
O185        O  0.01489951  0.69692965  0.32489401    -0.84500
C186        C  0.07647271  0.53910062  0.36332225     0.96270
C187        C  0.08766426  0.62426061  0.44022903     1.03710
O188        O  0.07656231  0.66258594  0.37158023    -1.13480
O189        O  0.00736527  0.74420834  0.39034806    -0.75910
O190        O  0.96327846  0.67272717  0.38631489    -0.79400
O191        O  0.11318394  0.56391644  0.34989658    -0.80090
C192        C  0.96531152  0.71995689  0.39100320     0.95170
O193        O  0.00391721  0.61268563  0.33810750    -0.78050
O194        O  0.11422952  0.75891616  0.38949372    -0.83240
C195        C  0.15599010  0.70344941  0.31068186     0.97790
C196        C  0.16032320  0.74560479  0.39409752     1.03710
O197        O  0.16731869  0.66055386  0.32457933    -0.78880
C198        C  0.00371563  0.65007892  0.31811753     1.02010
Fe199      Fe  0.02829342  0.65523523  0.63762899     1.65780
Fe200      Fe  0.10186217  0.74890221  0.66317618     1.73250
Fe201      Fe  0.15566764  0.64096597  0.63827763     1.54420
O202        O  0.11418277  0.56735606  0.64622366    -0.82620
O203        O  0.13469407  0.76842167  0.62149170    -0.80920
O204        O  0.04085177  0.59432602  0.66566641    -0.85120
O205        O  0.05202288  0.62208380  0.59441248    -0.79980
O206        O  0.17861531  0.64825578  0.68644809    -0.81750
O207        O  0.02915787  0.77357450  0.64709891    -0.84500
C208        C  0.09410148  0.62485466  0.57837009     0.96270
C209        C  0.06812045  0.55830565  0.65695166     1.03710
O210        O  0.09540554  0.68085826  0.64639275    -1.13480
O211        O  0.06945397  0.72368189  0.70307769    -0.75910
O212        O  0.00171296  0.68566080  0.68058485    -0.79400
O213        O  0.13716733  0.63527441  0.59103255    -0.80090
C214        C  0.02936978  0.69600537  0.70494285     0.95170
O215        O  0.01254322  0.71771090  0.61033342    -0.78050
O216        O  0.17330196  0.73350978  0.68569582    -0.83240
C217        C  0.18066238  0.75550225  0.61670731     0.97790
C218        C  0.18942622  0.69198749  0.69876439     1.03710
O219        O  0.19757291  0.71100856  0.62563515    -0.78880
C220        C  0.99910239  0.75584752  0.62597025     1.02010
Fe221      Fe  0.96404968  0.31704061  0.38331073     1.65780
Fe222      Fe  0.92983204  0.21680644  0.33943876     1.73250
Fe223      Fe  0.84322602  0.30137859  0.36562816     1.54420
O224        O  0.85610921  0.31010080  0.41621127    -0.82620
O225        O  0.86916052  0.22062550  0.30733223    -0.80920
O226        O  0.93859963  0.28789601  0.42529264    -0.85120
O227        O  0.91336947  0.37327470  0.39224710    -0.79980
O228        O  0.81614022  0.22595139  0.37674565    -0.81750
O229        O  0.97299882  0.26486005  0.31110714    -0.84500
C230        C  0.90758534  0.39798714  0.36774402     0.96270
C231        C  0.89374588  0.29930107  0.43525052     1.03710
O232        O  0.91215677  0.27565381  0.36296471    -1.13480
O233        O  0.99241409  0.19578619  0.36690849    -0.75910
O234        O  0.02427569  0.27031904  0.38130502    -0.79400
O235        O  0.87344317  0.37813877  0.34976056    -0.80090
C236        C  0.02887914  0.22331095  0.37712624     0.95170
O237        O  0.98443191  0.34010957  0.33727262    -0.78050
O238        O  0.88498104  0.17515929  0.36902660    -0.83240
C239        C  0.82975489  0.24732206  0.30171361     0.97790
C240        C  0.83813887  0.18182206  0.37627799     1.03710
O241        O  0.82008198  0.28707419  0.31817357    -0.78880
C242        C  0.98631779  0.31243319  0.31235563     1.02010
Fe243      Fe  0.97470297  0.29451849  0.62460501     1.65780
Fe244      Fe  0.91001583  0.19477168  0.64891885     1.73250
Fe245      Fe  0.84523330  0.30007875  0.63499123     1.54410
O246        O  0.88008517  0.37398069  0.64856048    -0.82620
O247        O  0.87932266  0.18748659  0.60516482    -0.80920
O248        O  0.96463275  0.35980991  0.64661999    -0.85120
O249        O  0.94498163  0.32178100  0.58218760    -0.79980
O250        O  0.82440021  0.28012057  0.68317321    -0.81750
O251        O  0.98472824  0.17473725  0.63454929    -0.84500
C252        C  0.89967153  0.32345560  0.57072713     0.96270
C253        C  0.92773433  0.38883093  0.65160612     1.03710
O254        O  0.91044218  0.26610512  0.63817977    -1.13480
O255        O  0.94063001  0.21387344  0.68832331    -0.75910
O256        O  0.00215882  0.26844150  0.66917532    -0.79400
O257        O  0.85929403  0.31710453  0.58765862    -0.80090
C258        C  0.97955119  0.24257682  0.69179024     0.95170
O259        O  0.99340746  0.23270559  0.59819955    -0.78050
O260        O  0.83904573  0.19873485  0.67372605    -0.83240
C261        C  0.83149142  0.18756021  0.60894905     0.97790
C262        C  0.81794383  0.23250946  0.69089595     1.03710
O263        O  0.80935654  0.22823701  0.61961156    -0.78880
C264        C  0.01166569  0.19564789  0.61298791     1.02010
Fe265      Fe  0.96115095  0.62590815  0.89151079     1.65780
Fe266      Fe  0.91629621  0.70375592  0.83617768     1.73250
Fe267      Fe  0.83895789  0.61630161  0.86840531     1.54410
O268        O  0.87778461  0.54476435  0.85614962    -0.82620
O269        O  0.87949588  0.74819492  0.86698405    -0.80920
O270        O  0.94065238  0.55167187  0.89102341    -0.85120
O271        O  0.92286220  0.63122175  0.93338372    -0.79980
O272        O  0.81563038  0.62407701  0.82002611    -0.81750
O273        O  0.99013564  0.72396813  0.85142618    -0.84500
C274        C  0.87879934  0.61249004  0.93966331     0.96270
C275        C  0.92013460  0.52827896  0.86861317     1.03710
O276        O  0.90419397  0.64933697  0.86635802    -1.13480
O277        O  0.94736833  0.65018635  0.80961514    -0.75910
O278        O  0.00058955  0.61795377  0.84734968    -0.79400
O279        O  0.84588863  0.60213411  0.91805883    -0.80090
C280        C  0.98581373  0.62390878  0.81815780     0.95170
O281        O  0.98602312  0.69770627  0.90027045    -0.78050
O282        O  0.84896338  0.70005642  0.81056901    -0.83240
C283        C  0.83284999  0.73962834  0.87554509     0.97790
C284        C  0.81600061  0.66613414  0.80428309     1.03710
O285        O  0.81091326  0.69387744  0.87717806    -0.78880
C286        C  0.01015133  0.72013324  0.87861411     1.02010
Fe287      Fe  0.96568965  0.62662464  0.12272717     1.65780
Fe288      Fe  0.91745091  0.73753369  0.14582414     1.73250
Fe289      Fe  0.84242833  0.63119584  0.14408028     1.54410
O290        O  0.85326406  0.60188780  0.09687385    -0.82620
O291        O  0.86555411  0.73812634  0.18412663    -0.80920
O292        O  0.93263709  0.62643881  0.07899218    -0.85120
O293        O  0.93065167  0.55743629  0.12921299    -0.79980
O294        O  0.80211286  0.69145832  0.12292415    -0.81750
O295        O  0.97740143  0.71652992  0.17508354    -0.84500
C296        C  0.91593404  0.54362211  0.15623833     0.96270
C297        C  0.88634975  0.61085163  0.07418095     1.03710
O298        O  0.90746305  0.66642624  0.13729488    -1.13480
O299        O  0.96649371  0.75104428  0.10752593    -0.75910
O300        O  0.01635759  0.68480209  0.11215494    -0.79400
O301        O  0.88029445  0.56928239  0.16921347    -0.80090
C302        C  0.01016368  0.73101869  0.10477374     0.95170
O303        O  0.98988138  0.63143281  0.16894210    -0.78050
O304        O  0.85891952  0.75682888  0.11711140    -0.83240
C305        C  0.83067984  0.71077301  0.19771581     0.97790
C306        C  0.81411732  0.73749338  0.11448493     1.03710
O307        O  0.82276733  0.66433794  0.18879521    -0.78880
C308        C  0.98896319  0.67208371  0.18592788     1.02010
Fe309      Fe  0.03041462  0.30168623  0.87984833     1.65780
Fe310      Fe  0.08192040  0.19669744  0.85578103     1.73250
Fe311      Fe  0.15935065  0.29540653  0.86974677     1.54410
O312        O  0.12849656  0.37434222  0.86493362    -0.82620
O313        O  0.12251873  0.17826891  0.89457688    -0.80920
O314        O  0.05965301  0.34490614  0.84462479    -0.85120
O315        O  0.07086789  0.33225994  0.91905951    -0.79980
O316        O  0.17128853  0.28236208  0.81990945    -0.81750
O317        O  0.01302438  0.18334197  0.88055263    -0.84500
C318        C  0.11326630  0.32092958  0.93259213     0.96270
C319        C  0.08270321  0.38238841  0.85481394     1.03710
O320        O  0.09037832  0.26388674  0.86969711    -1.13480
O321        O  0.04153127  0.22257761  0.81903991    -0.75910
O322        O  0.98680322  0.27520317  0.84299991    -0.79400
O323        O  0.15178937  0.30361862  0.91775718    -0.80090
C324        C  0.00283106  0.25159538  0.81886669     0.95170
O325        O  0.99749906  0.24994402  0.91114755    -0.78050
O326        O  0.14745513  0.20039765  0.82502582    -0.83240
C327        C  0.17009188  0.17943348  0.88959496     0.97790
C328        C  0.17032688  0.23621285  0.80900533     1.03710
O329        O  0.19263546  0.22066037  0.87876493    -0.78880
C330        C  0.98387649  0.20727050  0.89962412     1.02010
Fe331      Fe  0.02268442  0.31537263  0.11995651     1.65780
Fe332      Fe  0.07312447  0.20620230  0.14695027     1.73250
Fe333      Fe  0.14599431  0.31225287  0.13685468     1.54420
O334        O  0.13066426  0.33871701  0.08895386    -0.82620
O335        O  0.13348572  0.20567395  0.17901044    -0.80920
O336        O  0.05064999  0.31034642  0.07553250    -0.85120
O337        O  0.06319453  0.38189848  0.12105161    -0.79980
O338        O  0.18279236  0.24974311  0.11503780    -0.81750
O339        O  0.02391774  0.23227516  0.18199389    -0.84500
C340        C  0.07047443  0.39673134  0.14843017     0.96270
C341        C  0.09616965  0.32577207  0.06818097     1.03710
O342        O  0.08120426  0.27585551  0.13399119    -1.13480
O343        O  0.01504532  0.18918417  0.11554007    -0.75910
O344        O  0.96931968  0.25906390  0.11433509    -0.79400
O345        O  0.10768403  0.37468613  0.16253459    -0.80090
C346        C  0.97309118  0.21165645  0.11114026     0.95170
O347        O  0.00427256  0.31404721  0.16740855    -0.78050
O348        O  0.12294026  0.18613593  0.11260837    -0.83240
C349        C  0.16752831  0.23487548  0.19100535     0.97790
C350        C  0.16760999  0.20446792  0.10678039     1.03710
O351        O  0.17137440  0.28187290  0.18165306    -0.78880
C352        C  0.01011916  0.27825135  0.18827065     1.02010
C353        C  0.11553219  0.32250358  0.96740084    -0.07070
C354        C  0.12855147  0.36799582  0.98326493    -0.18200
C355        C  0.12520132  0.37034741  0.01665786     0.10130
C356        C  0.10836146  0.32634128  0.03406565    -0.06990
C357        C  0.09705143  0.28084950  0.01797140    -0.18230
C358        C  0.10121200  0.27830616  0.98512440     0.10160
S359        S  0.13993120  0.43075424  0.03527472    -0.33190
S360        S  0.08621982  0.21784287  0.96685060    -0.33200
H361        H  0.13359167  0.21714276  0.95067311     0.28170
H362        H  0.10291711  0.42583573  0.05965876     0.28170
H363        H  0.13970587  0.40199768  0.96961053     0.18760
H364        H  0.08391943  0.24701464  0.03116258     0.18760
C365        C  0.02715733  0.42818974  0.16246431    -0.07070
C366        C  0.97744173  0.41808185  0.14995086    -0.18200
C367        C  0.93584325  0.45097864  0.15400111     0.10130
C368        C  0.94257886  0.49771303  0.16991338    -0.06990
C369        C  0.98993988  0.50538176  0.18585841    -0.18230
C370        C  0.03215945  0.47152255  0.18230624     0.10160
S371        S  0.87680577  0.43522043  0.13368006    -0.33190
S372        S  0.09197411  0.48876676  0.20101233    -0.33200
H373        H  0.12407515  0.47002209  0.17696779     0.28170
H374        H  0.84562439  0.46755385  0.15188176     0.28170
H375        H  0.97117415  0.38558597  0.13455801     0.18760
H376        H  0.99596154  0.54083951  0.19833677     0.18760
C377        C  0.95194577  0.48345941  0.85860863    -0.07070
C378        C  0.99449408  0.49436648  0.83844703    -0.18200
C379        C  0.04096131  0.46674113  0.83924784     0.10130
C380        C  0.04745373  0.42639235  0.86149901    -0.06990
C381        C  0.00443440  0.41481683  0.88145648    -0.18230
C382        C  0.95783720  0.44186999  0.88005934     0.10160
S383        S  0.09028091  0.48430930  0.81070418    -0.33190
S384        S  0.90680393  0.42170044  0.90680526    -0.33200
H385        H  0.86714723  0.44642795  0.89016190     0.28170
H386        H  0.13125757  0.46290163  0.82784582     0.28170
H387        H  0.99322051  0.52719599  0.82305140     0.18760
H388        H  0.00502451  0.38170777  0.89704493     0.18760
C389        C  0.86819684  0.60019433  0.97347781    -0.07070
C390        C  0.83390217  0.63038656  0.99066370    -0.18200
C391        C  0.83590224  0.63154871  0.02407779     0.10130
C392        C  0.87231231  0.60149566  0.04064413    -0.06990
C393        C  0.90319592  0.56802436  0.02341064    -0.18230
C394        C  0.90116837  0.56674818  0.99023179     0.10160
S395        S  0.79664889  0.67742217  0.04387718    -0.33190
S396        S  0.94412606  0.52401827  0.97023167    -0.33200
H397        H  0.90942493  0.51419511  0.94545671     0.28170
H398        H  0.84003244  0.70300895  0.05620370     0.28170
H399        H  0.80903539  0.65672301  0.97803141     0.18760
H400        H  0.93104883  0.54456480  0.03581030     0.18760
C401        C  0.99465411  0.24583305  0.72445025    -0.07070
C402        C  0.99555285  0.29475202  0.73775771    -0.18200
C403        C  0.98653959  0.30021644  0.77015704     0.10130
C404        C  0.97705591  0.25586926  0.78900059    -0.06990
C405        C  0.97035691  0.20809360  0.77495325    -0.18230
C406        C  0.98440344  0.20177052  0.74363428     0.10160
S407        S  0.98854517  0.36405615  0.78620442    -0.33190
S408        S  0.98703520  0.13726688  0.72770537    -0.33200
H409        H  0.97516224  0.11037791  0.75612553     0.28170
H410        H  0.95580006  0.35260492  0.81214678     0.28170
H411        H  0.99993388  0.32868910  0.72267499     0.18760
H412        H  0.96334669  0.17443531  0.78992688     0.18760
C413        C  0.00604125  0.29349913  0.22142702    -0.07070
C414        C  0.97112503  0.33180244  0.22911127    -0.18200
C415        C  0.96856232  0.34987013  0.26001621     0.10130
C416        C  0.00544671  0.33361859  0.28252590    -0.06990
C417        C  0.04786081  0.30622286  0.27208713    -0.18230
C418        C  0.04363355  0.27916468  0.24397367     0.10160
S419        S  0.91212890  0.38499906  0.27027621    -0.33190
S420        S  0.07891735  0.22048456  0.24242193    -0.33200
H421        H  0.03521771  0.19020431  0.23550155     0.28170
H422        H  0.92950008  0.39565374  0.30068170     0.28170
H423        H  0.94308731  0.34447014  0.21175811     0.18760
H424        H  0.07574919  0.29326565  0.28951980     0.18760
C425        C  0.88981644  0.30924956  0.46958240    -0.07070
C426        C  0.93139079  0.33607837  0.48310431    -0.18200
C427        C  0.93376234  0.34556481  0.51555042     0.10130
C428        C  0.89361138  0.32741395  0.53569314    -0.06990
C429        C  0.85004336  0.30369623  0.52178787    -0.18230
C430        C  0.84796588  0.29399637  0.48902803     0.10160
S431        S  0.98973785  0.38040422  0.52922433    -0.33190
S432        S  0.79319259  0.25869528  0.47411466    -0.33200
H433        H  0.82079958  0.23127492  0.45118777     0.28170
H434        H  0.96339397  0.40603899  0.55331824     0.28170
H435        H  0.96291534  0.34979576  0.46811585     0.18760
H436        H  0.81892234  0.28912388  0.53675449     0.18760
C437        C  0.02025767  0.67038802  0.73556143    -0.07070
C438        C  0.99684738  0.62161949  0.73594803    -0.18200
C439        C  0.99475243  0.59268059  0.76403502     0.10130
C440        C  0.01904101  0.61207769  0.79168283    -0.06990
C441        C  0.05344256  0.65336315  0.78829933    -0.18230
C442        C  0.04665349  0.68738261  0.76293158     0.10160
S443        S  0.95203302  0.53753608  0.76453639    -0.33190
S444        S  0.06577345  0.75369539  0.76884797    -0.33200
H445        H  0.02736609  0.77432327  0.74914187     0.28170
H446        H  0.92447257  0.55194938  0.79178741     0.28170
H447        H  0.97808271  0.60698552  0.71488045     0.18760
H448        H  0.07214297  0.66803228  0.80938262     0.18760
C449        C  0.94773342  0.44198015  0.65774886    -0.07070
C450        C  0.98102705  0.44741896  0.68414650    -0.18200
C451        C  0.02493079  0.48042658  0.68341380     0.10130
C452        C  0.03820656  0.50871192  0.65542516    -0.06990
C453        C  0.00387458  0.50471172  0.62958879    -0.18230
C454        C  0.95894962  0.47353449  0.63082987     0.10160
S455        S  0.06303009  0.48460403  0.71904712    -0.33190
S456        S  0.91779442  0.47388860  0.59645536    -0.33200
H457        H  0.87355032  0.45607700  0.61275376     0.28170
H458        H  0.10784662  0.50410190  0.70411133     0.28170
H459        H  0.97500078  0.42261264  0.70479268     0.18760
H460        H  0.01027347  0.52891512  0.60871738     0.18760
C461        C  0.99543362  0.66649174  0.22022065    -0.07070
C462        C  0.02491419  0.62610605  0.23204665    -0.18200
C463        C  0.02584137  0.61539420  0.26455310     0.10130
C464        C  0.99149742  0.64122565  0.28496835    -0.06990
C465        C  0.95743182  0.67658180  0.27216046    -0.18230
C466        C  0.96431361  0.69446155  0.24137331     0.10160
S467        S  0.07702185  0.57535958  0.27822612    -0.33190
S468        S  0.94067149  0.75806047  0.23357051    -0.33200
H469        H  0.98724698  0.77633321  0.22017863     0.28170
H470        H  0.09371539  0.61214121  0.29995037     0.28170
H471        H  0.05040637  0.60578581  0.21624214     0.18760
H472        H  0.93222888  0.69739445  0.28782724     0.18760
C473        C  0.95312541  0.43345506  0.35954002    -0.07070
C474        C  0.99944780  0.42320138  0.37643507    -0.18200
C475        C  0.04525585  0.45078958  0.37165460     0.10130
C476        C  0.04665980  0.49370817  0.35118718    -0.06990
C477        C  0.00225463  0.50183904  0.33217276    -0.18230
C478        C  0.95532654  0.47410673  0.33700115     0.10160
S479        S  0.09985942  0.43322539  0.39568393    -0.33190
S480        S  0.89912749  0.49669461  0.31645861    -0.33200
H481        H  0.86317048  0.47771814  0.33890659     0.28170
H482        H  0.13674101  0.45868056  0.37631607     0.28170
H483        H  0.00095023  0.39251310  0.39401797     0.18760
H484        H  0.00188659  0.53270705  0.31507235     0.18760
C485        C  0.09246751  0.62054214  0.54318718    -0.07070
C486        C  0.06063757  0.65473625  0.52691005    -0.18200
C487        C  0.06230714  0.65966376  0.49377223     0.10130
C488        C  0.09396287  0.62690560  0.47550268    -0.06990
C489        C  0.12674042  0.59313365  0.49177986    -0.18230
C490        C  0.12672172  0.59006201  0.52535878     0.10160
S491        S  0.02518069  0.71117913  0.47661000    -0.33190
S492        S  0.17010373  0.54552881  0.54399272    -0.33200
H493        H  0.13939831  0.53563157  0.57110251     0.28170
H494        H  0.06129309  0.72338831  0.45250150     0.28170
H495        H  0.03625945  0.68022277  0.54031133     0.18760
H496        H  0.15130992  0.56794685  0.47835347     0.18760
C497        C  0.18338079  0.72524702  0.28064990    -0.07070
C498        C  0.23693558  0.72044925  0.27519911    -0.18200
C499        C  0.26372911  0.74919884  0.25068560     0.10130
C500        C  0.23746461  0.78597652  0.23126824    -0.06990
C501        C  0.18394466  0.78883279  0.23619622    -0.18230
C502        C  0.15710029  0.75851115  0.25913803     0.10160
S503        S  0.33144407  0.73727621  0.24611915    -0.33190
S504        S  0.08796894  0.76278301  0.25839671    -0.33200
H505        H  0.07951614  0.71112674  0.26723446     0.28170
H506        H  0.34527176  0.78662593  0.23496724     0.28170
H507        H  0.25858943  0.69533071  0.29074702     0.18760
H508        H  0.16181421  0.81403750  0.22095834     0.18760
C509        C  0.15099884  0.81279338  0.11378796    -0.07070
C510        C  0.15023919  0.76795148  0.09550289    -0.18200
C511        C  0.10358892  0.74299251  0.08812280     0.10130
C512        C  0.05646129  0.76338560  0.09895118    -0.06990
C513        C  0.05694480  0.81092323  0.11382101    -0.18230
C514        C  0.10283791  0.83453257  0.12269101     0.10160
S515        S  0.10660120  0.68460656  0.06559195    -0.33190
S516        S  0.09495457  0.88787047  0.14936404    -0.33200
H517        H  0.12348278  0.86448576  0.17387606     0.28170
H518        H  0.05637852  0.68789212  0.05343454     0.28170
H519        H  0.18607645  0.75123331  0.08782133     0.18760
H520        H  0.02122440  0.82663909  0.12258621     0.18760
C521        C  0.24330978  0.06970633  0.11199616    -0.07070
C522        C  0.20428683  0.07368794  0.08935337    -0.18200
C523        C  0.18585588  0.12189927  0.08033582     0.10130
C524        C  0.20460325  0.16643962  0.09575210    -0.06990
C525        C  0.24915857  0.16288213  0.11408052    -0.18230
C526        C  0.26775865  0.11494570  0.12310532     0.10160
S527        S  0.13440724  0.12448961  0.05177993    -0.33190
S528        S  0.31861428  0.11433906  0.15196603    -0.33200
H529        H  0.29713069  0.07355331  0.17010746     0.28170
H530        H  0.14091030  0.17730941  0.04518055     0.28170
H531        H  0.18764316  0.03929229  0.07910025     0.18760
H532        H  0.26442581  0.19668587  0.12577678     0.18760
C533        C  0.26004770  0.73649822  0.78851482    -0.07070
C534        C  0.29202727  0.72624013  0.76211234    -0.18200
C535        C  0.27174114  0.70598437  0.73329365     0.10130
C536        C  0.21792582  0.69655636  0.73013301    -0.06990
C537        C  0.18843693  0.69894591  0.75798611    -0.18230
C538        C  0.20894844  0.71682005  0.78687226     0.10160
S539        S  0.31691011  0.69085909  0.70230198    -0.33190
S540        S  0.16881055  0.71039350  0.82155843    -0.33200
H541        H  0.20985560  0.70142226  0.84252777     0.28170
H542        H  0.28290384  0.66102042  0.68407469     0.28170
H543        H  0.33262746  0.73571588  0.76335184     0.18760
H544        H  0.14871816  0.68679084  0.75710106     0.18760
C545        C  0.16509551  0.77489384  0.88907770    -0.07070
C546        C  0.15046774  0.72842811  0.90380956    -0.18200
C547        C  0.09950457  0.71031000  0.90186882     0.10130
C548        C  0.06274910  0.73878593  0.88431891    -0.06990
C549        C  0.07742999  0.78452635  0.86946385    -0.18230
C550        C  0.12758558  0.80309270  0.87142434     0.10160
S551        S  0.08446578  0.64921522  0.92047005    -0.33190
S552        S  0.14154212  0.86206446  0.84952760    -0.33200
H553        H  0.09901244  0.86074150  0.82893182     0.28170
H554        H  0.04983931  0.67063130  0.94228709     0.28170
H555        H  0.17856854  0.70649977  0.91701353     0.18760
H556        H  0.04909680  0.80589630  0.85608888     0.18760
C557        C  0.36131765  0.86365485  0.96767395    -0.07070
C558        C  0.33388332  0.82517998  0.98521383    -0.18200
C559        C  0.32569604  0.82839311  0.01815126     0.10130
C560        C  0.34645885  0.87027171  0.03489098    -0.06990
C561        C  0.37596593  0.90741828  0.01792260    -0.18230
C562        C  0.38340458  0.90484633  0.98485064     0.10160
S563        S  0.28529810  0.77980404  0.03687929    -0.33190
S564        S  0.42196354  0.95506808  0.96648654    -0.33200
H565        H  0.38051915  0.97441294  0.94891787     0.28170
H566        H  0.25843001  0.81438747  0.05606579     0.28170
H567        H  0.31616625  0.79308784  0.97305582     0.18760
H568        H  0.39302304  0.93941288  0.03056607     0.18760
C569        C  0.22873712  0.02633029  0.89491256    -0.07070
C570        C  0.18496007  0.03786095  0.87713744    -0.18200
C571        C  0.16749453  0.08765523  0.87391371     0.10130
C572        C  0.19374357  0.12841239  0.88946006    -0.06990
C573        C  0.23606432  0.11727347  0.90869178    -0.18230
C574        C  0.25325209  0.06647297  0.91212167     0.10160
S575        S  0.11196885  0.09756966  0.84864798    -0.33190
S576        S  0.30471416  0.05564009  0.93979475    -0.33200
H577        H  0.28305572  0.00964506  0.95218786     0.28170
H578        H  0.09771465  0.04581828  0.84426894     0.28170
H579        H  0.16521053  0.00787796  0.86420967     0.18760
H580        H  0.25436143  0.14774972  0.92206362     0.18760
C581        C  0.74420107  0.16508313  0.22832304    -0.07070
C582        C  0.72613585  0.16549740  0.25994614    -0.18200
C583        C  0.74957464  0.19666358  0.28350326     0.10130
C584        C  0.79380885  0.22766129  0.27614560    -0.06990
C585        C  0.81032274  0.22886068  0.24427618    -0.18230
C586        C  0.78517739  0.19991359  0.22054164     0.10160
S587        S  0.72356170  0.19176766  0.32324495    -0.33190
S588        S  0.80598528  0.21113664  0.18032619    -0.33200
H589        H  0.75549364  0.21236904  0.16853187     0.28170
H590        H  0.73480997  0.24290392  0.33126941     0.28170
H591        H  0.69446019  0.14020540  0.26664192     0.18760
H592        H  0.84371927  0.25218322  0.23779814     0.18760
C593        C  0.82887176  0.13622477  0.12009505    -0.07070
C594        C  0.83394389  0.17546934  0.09710165    -0.18200
C595        C  0.88222828  0.19838888  0.09094240     0.10130
C596        C  0.92580104  0.18113234  0.10790156    -0.06990
C597        C  0.92073425  0.14040857  0.12958239    -0.18230
C598        C  0.87294974  0.11922551  0.13691697     0.10160
S599        S  0.88611763  0.24908541  0.06133929    -0.33190
S600        S  0.86881685  0.07482752  0.17064637    -0.33200
H601        H  0.92091149  0.07595979  0.17950698     0.28170
H602        H  0.93830765  0.24191925  0.05381703     0.28170
H603        H  0.80047562  0.18825335  0.08409174     0.18760
H604        H  0.95383402  0.12852047  0.14325327     0.18760
C605        C  0.47295228  0.90463936  0.15527287    -0.07070
C606        C  0.47446708  0.93880750  0.18133720    -0.18200
C607        C  0.50261198  0.98663427  0.18003761     0.10130
C608        C  0.53029692  0.00114128  0.15202959    -0.06990
C609        C  0.53315004  0.96276084  0.12820652    -0.18230
C610        C  0.50837204  0.91497704  0.13058972     0.10160
S611        S  0.50059337  0.02732763  0.21415288    -0.33190
S612        S  0.51840150  0.87028784  0.09864859    -0.33200
H613        H  0.49919521  0.82697553  0.11551801     0.28170
H614        H  0.50224515  0.07366550  0.19660164     0.28170
H615        H  0.45123125  0.92978145  0.20195703     0.18760
H616        H  0.55619114  0.96886895  0.10693442     0.18760
C617        C  0.74720595  0.87547262  0.11760789    -0.07070
C618        C  0.72308062  0.83466749  0.13413005    -0.18200
C619        C  0.73559075  0.78401406  0.12775270     0.10130
C620        C  0.77464283  0.77432360  0.10530781    -0.06990
C621        C  0.79127172  0.81456391  0.08481575    -0.18230
C622        C  0.77902061  0.86545925  0.09129650     0.10160
S623        S  0.70644989  0.73444969  0.15245167    -0.33190
S624        S  0.80656115  0.91533141  0.06595356    -0.33200
H625        H  0.80425710  0.95560533  0.08780820     0.28170
H626        H  0.70605477  0.69763773  0.12820750     0.28170
H627        H  0.69534941  0.84243526  0.15277429     0.18760
H628        H  0.82014775  0.80719157  0.06679785     0.18760
C629        C  0.73011491  0.15947113  0.77128489    -0.07070
C630        C  0.73839165  0.21355499  0.77072811    -0.18200
C631        C  0.76638938  0.23936246  0.74554803     0.10130
C632        C  0.78455933  0.21168588  0.71875448    -0.06990
C633        C  0.77309329  0.15840407  0.71891865    -0.18230
C634        C  0.74823470  0.13255452  0.74439381     0.10160
S635        S  0.78159938  0.30638093  0.75050251    -0.33190
S636        S  0.74451620  0.06360091  0.74160819    -0.33200
H637        H  0.70094183  0.05825592  0.76102656     0.28170
H638        H  0.83374278  0.30117275  0.74216100     0.28170
H639        H  0.72714531  0.23531473  0.79137885     0.18760
H640        H  0.78547398  0.13515893  0.69919508     0.18760
C641        C  0.92855438  0.19334300  0.89862925    -0.07070
C642        C  0.90803424  0.19105863  0.86789208    -0.18200
C643        C  0.85635045  0.18160187  0.86254645     0.10130
C644        C  0.82389269  0.16866563  0.88824021    -0.06600
C645        C  0.84298008  0.17281242  0.91950631    -0.18230
C646        C  0.89502375  0.18650810  0.92500009     0.10160
S647        S  0.83365011  0.18095517  0.82202827    -0.33190
S648        S  0.91668147  0.19070461  0.96559281    -0.33200
H649        H  0.96889228  0.18182232  0.95931657     0.28170
H650        H  0.87277430  0.21302743  0.80929389     0.28170
H651        H  0.93278687  0.19543916  0.84741844     0.18760
H652        H  0.81828538  0.16298663  0.93951457     0.18760
C653        C  0.53375574  0.00059693  0.86403736    -0.07070
C654        C  0.52993259  0.95983571  0.88712324    -0.18200
C655        C  0.50217845  0.91348936  0.88219659     0.10130
C656        C  0.47525538  0.90585322  0.85360385    -0.06990
C657        C  0.48147632  0.94510892  0.82972457    -0.18230
C658        C  0.50865602  0.99201147  0.83481049     0.10160
S659        S  0.50090903  0.86652467  0.91402721    -0.33190
S660        S  0.50580099  0.04071222  0.80410755    -0.33200
H661        H  0.50140896  0.08175583  0.82535779     0.28170
H662        H  0.50183066  0.82414599  0.89359782     0.28170
H663        H  0.54930482  0.96350831  0.90976248     0.18760
H664        H  0.46064567  0.94131914  0.80755614     0.18760
C665        C  0.66846943  0.09490684  0.97332548    -0.07070
C666        C  0.62215509  0.10754829  0.98839887    -0.18200
C667        C  0.61803253  0.10696179  0.02168032     0.10130
C668        C  0.66141234  0.09441481  0.04017154    -0.06990
C669        C  0.70866087  0.08616470  0.02507090    -0.18230
C670        C  0.71270066  0.08603475  0.99193920     0.10160
S671        S  0.55503772  0.11470248  0.03885437    -0.33190
S672        S  0.77443390  0.07000566  0.97515316    -0.33200
H673        H  0.76502062  0.08825415  0.94417550     0.28170
H674        H  0.57215174  0.14317438  0.06501647     0.28170
H675        H  0.58790358  0.11336606  0.97424875     0.18760
H676        H  0.74193994  0.07616416  0.03922714     0.18760
C677        C  0.80416958  0.78764989  0.87922221    -0.07070
C678        C  0.78965253  0.80465118  0.90952319    -0.18200
C679        C  0.77644493  0.85638643  0.91420809     0.10130
C680        C  0.77894344  0.89156883  0.88824544    -0.06990
C681        C  0.79314369  0.87436728  0.85832251    -0.18230
C682        C  0.80487938  0.82335904  0.85332455     0.10160
S683        S  0.75943692  0.87595875  0.95384058    -0.33190
S684        S  0.82336422  0.80636561  0.81339663    -0.33200
H685        H  0.79894409  0.84712070  0.79742579     0.28170
H686        H  0.77231137  0.92826615  0.94941604     0.28170
H687        H  0.79104038  0.77841504  0.92973216     0.18760
H688        H  0.79347604  0.90104526  0.83826106     0.18760
C689        C  0.24293529  0.17687858  0.72037051    -0.07070
C690        C  0.19306513  0.16275232  0.73098583    -0.18200
C691        C  0.16936221  0.18391631  0.75782033     0.10130
C692        C  0.19490601  0.22039022  0.77718418    -0.06990
C693        C  0.24542959  0.23496239  0.76722480    -0.18230
C694        C  0.26922016  0.21417805  0.73922240     0.10160
S695        S  0.10414012  0.16385566  0.76517330    -0.33190
S696        S  0.33275651  0.23695498  0.72886788    -0.33200
H697        H  0.32329798  0.23912544  0.69594576     0.28170
H698        H  0.08801576  0.21512324  0.76658698     0.28170
H699        H  0.17094179  0.13459360  0.71785861     0.18760
H700        H  0.26692448  0.26208683  0.78148846     0.18760
C701        C  0.17321334  0.17577837  0.59721216    -0.07070
C702        C  0.15514512  0.19964676  0.62453409    -0.18200
C703        C  0.10301041  0.19671994  0.63224608     0.10130
C704        C  0.06670957  0.18431590  0.60848795    -0.06990
C705        C  0.08479754  0.17064586  0.57827644    -0.18230
C706        C  0.13750730  0.16279583  0.57312911     0.10160
S707        S  0.08642911  0.19783599  0.67379471    -0.33190
S708        S  0.15628915  0.13196774  0.53678632    -0.33200
H709        H  0.20920876  0.13143227  0.54281662     0.28170
H710        H  0.13044325  0.22464211  0.68426488     0.28170
H711        H  0.18228721  0.20893862  0.64317309     0.18760
H712        H  0.05760269  0.16245483  0.55947299     0.18760
C713        C  0.31851726  0.94914536  0.77549623    -0.07070
C714        C  0.32900429  0.00012873  0.76820668    -0.18200
C715        C  0.33132882  0.01537195  0.73679032     0.10130
C716        C  0.32000792  0.97916699  0.71275101    -0.06990
C717        C  0.32129815  0.92706335  0.71992254    -0.18230
C718        C  0.32173227  0.91161079  0.75162615     0.10160
S719        S  0.34657702  0.08155060  0.72974377    -0.33190
S720        S  0.32613860  0.84475194  0.76123914    -0.33200
H721        H  0.32849720  0.82666347  0.72984772     0.28170
H722        H  0.36123985  0.07249535  0.69842441     0.28170
H723        H  0.33148397  0.02865075  0.78676307     0.18760
H724        H  0.31642766  0.89905738  0.70128224     0.18760
C725        C  0.21383534  0.79923487  0.60679337    -0.07070
C726        C  0.19590979  0.82871350  0.58075953    -0.18200
C727        C  0.19394072  0.88272139  0.58205039     0.10130
C728        C  0.20946200  0.90783582  0.61013147    -0.06990
C729        C  0.23182972  0.87850127  0.63447939    -0.18230
C730        C  0.23779785  0.82565906  0.63177941     0.10160
S731        S  0.16680759  0.91661721  0.54853183    -0.33190
S732        S  0.27189955  0.79326440  0.66287731    -0.33200
H733        H  0.28408521  0.75076948  0.64404847     0.28170
H734        H  0.14716724  0.95777014  0.56597847     0.28170
H735        H  0.17723164  0.80935295  0.56115817     0.18760
H736        H  0.24553762  0.89659072  0.65584437     0.18760
C737        C  0.20242852  0.20966504  0.21596496    -0.07070
C738        C  0.20614729  0.15552211  0.21533637    -0.18200
C739        C  0.23302433  0.12671328  0.23834541     0.10130
C740        C  0.25926098  0.15143485  0.26369337    -0.06990
C741        C  0.25864895  0.20595016  0.26338425    -0.18230
C742        C  0.23021311  0.23488049  0.24047057     0.10160
S743        S  0.23026126  0.05784422  0.23373695    -0.33190
S744        S  0.22791890  0.30334035  0.24534124    -0.33200
H745        H  0.17450991  0.30610189  0.24049868     0.28170
H746        H  0.27741907  0.04811551  0.24829238     0.28170
H747        H  0.18687756  0.13448472  0.19664369     0.18760
H748        H  0.27754516  0.22628898  0.28248611     0.18760
C749        C  0.08001022  0.20251779  0.38225042    -0.07070
C750        C  0.12134045  0.22984866  0.36820686    -0.18200
C751        C  0.17098509  0.21085131  0.36914568     0.10130
C752        C  0.17954749  0.16312478  0.38424864    -0.06990
C753        C  0.13896122  0.13821592  0.40087909    -0.18230
C754        C  0.08915755  0.15749049  0.40004801     0.10160
S755        S  0.21975663  0.24532276  0.34659957    -0.33190
S756        S  0.03907058  0.12234384  0.42111924    -0.33200
H757        H  0.00897286  0.16539566  0.42786341     0.28170
H758        H  0.25590726  0.24365988  0.37138866     0.28170
H759        H  0.11444343  0.26508364  0.35490053     0.18760
H760        H  0.14539823  0.10146089  0.41254381     0.18760
C761        C  0.36112545  0.96202919  0.28731141    -0.07070
C762        C  0.37154125  0.00939569  0.27219659    -0.18200
C763        C  0.37406669  0.01290444  0.23943737     0.10130
C764        C  0.36574950  0.96806198  0.22219275    -0.06990
C765        C  0.36364137  0.91964935  0.23752509    -0.18230
C766        C  0.36090068  0.91629654  0.27045448     0.10160
S767        S  0.37891140  0.07593399  0.22141109    -0.33190
S768        S  0.34979499  0.85465930  0.28945533    -0.33200
H769        H  0.36718201  0.86925048  0.31972837     0.28170
H770        H  0.39562914  0.05872832  0.19156696     0.28170
H771        H  0.37185127  0.04453989  0.28577086     0.18760
H772        H  0.35784068  0.88508396  0.22377117     0.18760
C773        C  0.36284949  0.09157003  0.46292667    -0.07070
C774        C  0.34203768  0.13424410  0.47808243    -0.18200
C775        C  0.33931990  0.13596744  0.51148555     0.10130
C776        C  0.35777382  0.09378405  0.52971029    -0.06990
C777        C  0.38434322  0.05483101  0.51434257    -0.18230
C778        C  0.38762534  0.05355908  0.48139853     0.10160
S779        S  0.30921128  0.19132133  0.52848726    -0.33190
S780        S  0.42095019  0.00016208  0.46432108    -0.33200
H781        H  0.44028326  0.02920497  0.43853568     0.28170
H782        H  0.28837399  0.16644651  0.55528135     0.28170
H783        H  0.32392975  0.16405039  0.46397923     0.18760
H784        H  0.40034374  0.02339431  0.52813917     0.18760
C785        C  0.19605642  0.78843081  0.39660565    -0.07070
C786        C  0.20832783  0.80953707  0.36675653    -0.18200
C787        C  0.21713852  0.86169305  0.36296709     0.10130
C788        C  0.22176906  0.89275709  0.39003675    -0.06990
C789        C  0.21479654  0.87077517  0.42052479    -0.18230
C790        C  0.19948978  0.81904435  0.42394038     0.10160
S791        S  0.21939478  0.88609765  0.32266944    -0.33190
S792        S  0.18410978  0.79419136  0.46313694    -0.33200
H793        H  0.18541555  0.74190985  0.45508708     0.28170
H794        H  0.18901135  0.92909281  0.32892989     0.28170
H795        H  0.20394244  0.78654373  0.34554986     0.18760
H796        H  0.22030205  0.89406761  0.44146483     0.18760
C797        C  0.77805593  0.67924598  0.77829803    -0.07070
C798        C  0.79166182  0.67086592  0.74638548    -0.18200
C799        C  0.76758434  0.69729424  0.72095924     0.10130
C800        C  0.73098846  0.73621601  0.72687264    -0.06990
C801        C  0.71447569  0.74173636  0.75857957    -0.18230
C802        C  0.73653062  0.71304582  0.78393783     0.10160
S803        S  0.78543813  0.67965032  0.68119051    -0.33190
S804        S  0.71220678  0.72359603  0.82350583    -0.33200
H805        H  0.72718005  0.67573649  0.83600260     0.28170
H806        H  0.73802811  0.69281859  0.66756967     0.28170
H807        H  0.82289747  0.64508276  0.74119947     0.18760
H808        H  0.68605637  0.77040528  0.76390558     0.18760
C809        C  0.83460541  0.77189445  0.62448850    -0.07070
C810        C  0.86253727  0.77387423  0.65299958    -0.18200
C811        C  0.91591430  0.77627658  0.65341516     0.10130
C812        C  0.94393694  0.76963006  0.62492761    -0.06990
C813        C  0.91616873  0.76347972  0.59634218    -0.18230
C814        C  0.86207500  0.76653549  0.59571483     0.10160
S815        S  0.94483139  0.79019104  0.69131534    -0.33190
S816        S  0.83038521  0.76494835  0.55767425    -0.33200
H817        H  0.78058256  0.75542648  0.56976738     0.28170
H818        H  0.97413167  0.83194012  0.67915255     0.28170
H819        H  0.84276114  0.78054477  0.67519685     0.18760
H820        H  0.93679625  0.75693075  0.57431810     0.18760
C821        C  0.65348392  0.94350323  0.72978357    -0.07070
C822        C  0.65242099  0.90042001  0.75071803    -0.18200
C823        C  0.64358569  0.90630597  0.78304670     0.10130
C824        C  0.63396267  0.95549927  0.79416723    -0.06990
C825        C  0.62053172  0.99460197  0.77237646    -0.18230
C826        C  0.62973345  0.98884390  0.73971147     0.10160
S827        S  0.65581812  0.85296998  0.80961940    -0.33190
S828        S  0.61337139  0.04087963  0.71305467    -0.33200
H829        H  0.66203102  0.04628150  0.69882185     0.28170
H830        H  0.62751432  0.87235292  0.83532191     0.28170
H831        H  0.66516458  0.86324150  0.74271658     0.18760
H832        H  0.61082490  0.03227424  0.78105528     0.18760
C833        C  0.52211313  0.91267975  0.65038467    -0.07070
C834        C  0.50945711  0.94279939  0.67723399    -0.18200
C835        C  0.47855053  0.98782966  0.67497868     0.10130
C836        C  0.46168580  0.00675452  0.64490063    -0.06990
C837        C  0.47703448  0.97761753  0.61824463    -0.18230
C838        C  0.50265676  0.93043061  0.62084096     0.10160
S839        S  0.46403517  0.02048632  0.71122911    -0.33190
S840        S  0.51539703  0.89697960  0.58428001    -0.33200
H841        H  0.52513919  0.84913678  0.59887552     0.28170
H842        H  0.45897563  0.06907261  0.69664766     0.28170
H843        H  0.52649833  0.93303336  0.69998193     0.18760
H844        H  0.46415910  0.98936706  0.59474591     0.18760
C845        C  0.78955586  0.02961246  0.62575576    -0.07070
C846        C  0.76370603  0.05769470  0.60163761    -0.18200
C847        C  0.77341766  0.11043867  0.59632784     0.10130
C848        C  0.81009953  0.13553855  0.61529476    -0.06990
C849        C  0.83695287  0.10638380  0.63826405    -0.18230
C850        C  0.82608917  0.05513583  0.64448754     0.10160
S851        S  0.74135316  0.14174329  0.56356426    -0.33190
S852        S  0.86286130  0.02445480  0.67549601    -0.33200
H853        H  0.81987440  0.01866254  0.69574281     0.28170
H854        H  0.75015981  0.19254037  0.57321615     0.28170
H855        H  0.73546685  0.03860262  0.58684872     0.18760
H856        H  0.86887684  0.12277803  0.65110053     0.18760
C857        C  0.73533628  0.78409908  0.27317401    -0.07070
C858        C  0.76530767  0.81308877  0.25122538    -0.18200
C859        C  0.79491627  0.79075565  0.22687864     0.10130
C860        C  0.79753867  0.73612719  0.22361249    -0.06990
C861        C  0.76614999  0.70676109  0.24492299    -0.18230
C862        C  0.73534694  0.72975848  0.26906615     0.10160
S863        S  0.82767625  0.83611018  0.20072210    -0.33190
S864        S  0.69903199  0.68729344  0.29497973    -0.33200
H865        H  0.65285321  0.71392728  0.29049239     0.28170
H866        H  0.81060440  0.81250040  0.17277315     0.28170
H867        H  0.76613796  0.85458888  0.25314299     0.18760
H868        H  0.76585403  0.66528879  0.24306332     0.18760
C869        C  0.81202427  0.76820556  0.38607172    -0.07070
C870        C  0.84448859  0.76995402  0.35937102    -0.18200
C871        C  0.89682680  0.76376584  0.36249750     0.10130
C872        C  0.91664566  0.74647120  0.39169869    -0.06990
C873        C  0.88382373  0.74052527  0.41821899    -0.18230
C874        C  0.83184816  0.75401076  0.41607685     0.10160
S875        S  0.93636676  0.78108214  0.32860463    -0.33190
S876        S  0.79403473  0.75460004  0.45215889    -0.33200
H877        H  0.74557791  0.75430576  0.43754589     0.28170
H878        H  0.97684712  0.80202172  0.34652864     0.28170
H879        H  0.82987598  0.78307821  0.33651389     0.18760
H880        H  0.89884937  0.72591182  0.44054368     0.18760
C881        C  0.63154890  0.96472220  0.29030662    -0.07070
C882        C  0.62900220  0.91860623  0.27338938    -0.18200
C883        C  0.62425718  0.91922062  0.24041038     0.10130
C884        C  0.62252536  0.96683603  0.22455846    -0.06990
C885        C  0.61662870  0.01216331  0.24209359    -0.18230
C886        C  0.62074097  0.01147076  0.27513539     0.10160
S887        S  0.62924104  0.85947342  0.21949799    -0.33190
S888        S  0.61830786  0.07140026  0.29606885    -0.33200
H889        H  0.60272686  0.05000517  0.32551774     0.28170
H890        H  0.60602501  0.87742591  0.19135934     0.28170
H891        H  0.63508211  0.88232824  0.28561961     0.18760
H892        H  0.61525264  0.04900809  0.22977319     0.18760
C893        C  0.52696796  0.92564874  0.35760310    -0.07070
C894        C  0.53143166  0.96710782  0.37923688    -0.18200
C895        C  0.51229498  0.01587118  0.37292843     0.10130
C896        C  0.47866280  0.02380589  0.34736748    -0.06990
C897        C  0.47686239  0.98489494  0.32408495    -0.18230
C898        C  0.50104632  0.93638683  0.32865916     0.10160
S899        S  0.52776776  0.06630967  0.40058308    -0.33190
S900        S  0.49530854  0.88971646  0.29765586    -0.33200
H901        H  0.49302946  0.84696508  0.31845424     0.28170
H902        H  0.51260383  0.10686880  0.38036386     0.28170
H903        H  0.55310055  0.96317540  0.40105889     0.18760
H904        H  0.45470564  0.99118401  0.30296296     0.18760
C905        C  0.65582978  0.83933622  0.47290991    -0.07070
C906        C  0.70035684  0.85831471  0.48780181    -0.18200
C907        C  0.70319345  0.86302352  0.52078682     0.10130
C908        C  0.66062447  0.84814713  0.53988561    -0.06990
C909        C  0.61780385  0.82458161  0.52546320    -0.18230
C910        C  0.61455448  0.82089677  0.49209775     0.10160
S911        S  0.76177838  0.88995115  0.53687841    -0.33190
S912        S  0.55553482  0.79629862  0.47552783    -0.33200
H913        H  0.55212739  0.83386362  0.45131651     0.28170
H914        H  0.75979292  0.86224953  0.56581794     0.28170
H915        H  0.73238864  0.87239073  0.47335732     0.18760
H916        H  0.58540234  0.81209895  0.54007435     0.18760
C917        C  0.80926804  0.13392982  0.38138694    -0.07070
C918        C  0.77487806  0.12748188  0.40694202    -0.18200
C919        C  0.75254693  0.07906026  0.41339137     0.10130
C920        C  0.76600317  0.03697838  0.39421111    -0.06990
C921        C  0.80097554  0.04373357  0.36929762    -0.18230
C922        C  0.82079745  0.09159761  0.36183014     0.10160
S923        S  0.70844967  0.07292806  0.44649480    -0.33190
S924        S  0.85720250  0.09637237  0.32519448    -0.33200
H925        H  0.82445826  0.13370293  0.31260070     0.28170
H926        H  0.71670463  0.02028319  0.45216807     0.28170
H927        H  0.76622405  0.15963919  0.42208749     0.18760
H928        H  0.80948357  0.01223213  0.35350802     0.18760
loop_ 
_geom_bond_atom_site_label_1 
_geom_bond_atom_site_label_2 
_geom_bond_distance 
_geom_bond_site_symmetry_2 
_ccdc_geom_bond_type 
Fe1          O17   2.048       .  S
Fe1           O7   2.027       .  S
Fe1          O14   2.026       .  S
Fe1           O6   2.001       .  S
Fe1          O12   1.947       .  S
Fe2           O5   2.084       .  S
Fe2           O9   2.081       .  S
Fe2          O13   2.051       .  S
Fe2          O18   2.008       .  S
Fe2          O12   1.885       .  S
Fe3          O21   2.146       .  S
Fe3           O8   2.096       .  S
Fe3          O15   2.212       .  S
Fe3           O4   2.189       .  S
Fe3          O12   1.923       .  S
O4           C11   1.304       .  A
O5           C19   1.273       .  A
O6           C11   1.276       .  A
O7           C10   1.230       .  A
O8           C20   1.282       .  A
O9           C22   1.283       .  A
C10          O15   1.273       .  A
C10         C893   1.530       .  S
C11         C905   1.479       .  S
O13          C16   1.256       .  A
O14          C16   1.249       .  A
C16         C920   1.451   1_565  S
O17          C22   1.270       .  A
O18          C20   1.269       .  A
C19          O21   1.286       .  A
C19         C857   1.539       .  S
C20         C869   1.450       .  S
C22         C881   1.447       .  S
Fe23         O39   2.012       .  S
Fe23         O29   2.070       .  S
Fe23         O36   2.134       .  S
Fe23         O28   1.944       .  S
Fe23         O34   1.901       .  S
Fe24         O27   2.005       .  S
Fe24         O31   2.083       .  S
Fe24         O35   1.969       .  S
Fe24         O40   2.102       .  S
Fe24         O34   1.930       .  S
Fe25         O43   2.189       .  S
Fe25         O30   2.132       .  S
Fe25         O37   2.077       .  S
Fe25         O26   2.217       .  S
Fe25         O34   1.908       .  S
O26          C33   1.305       .  A
O27          C41   1.268       .  A
O28          C33   1.244       .  A
O29          C32   1.274       .  A
O30          C42   1.280       .  A
O31          C44   1.255       .  A
C32          O37   1.270       .  A
C32         C908   1.478       .  S
C33         C833   1.502       .  S
O35          C38   1.273       .  A
O36          C38   1.295       .  A
C38         C821   1.478       .  S
O39          C44   1.236       .  A
O40          C42   1.268       .  A
C41          O43   1.305       .  A
C41         C809   1.471       .  S
C42         C800   1.519       .  S
C44         C845   1.475   1_565  S
Fe45         O61   2.014   1_545  S
Fe45         O51   2.016       .  S
Fe45         O58   2.021   1_545  S
Fe45         O50   2.011       .  S
Fe45         O56   1.951       .  S
Fe46         O49   2.076       .  S
Fe46         O53   2.063   1_545  S
Fe46         O57   2.062   1_545  S
Fe46         O62   2.025       .  S
Fe46         O56   1.914       .  S
Fe47         O65   2.132       .  S
Fe47         O52   2.091       .  S
Fe47         O59   2.175       .  S
Fe47         O48   2.157       .  S
Fe47         O56   1.935       .  S
O48          C55   1.293       .  A
O49          C63   1.268       .  A
O50          C55   1.273       .  A
O51          C54   1.244       .  A
O52          C64   1.284       .  A
O53          C66   1.281       .  A
C54          O59   1.275       .  A
C54         C896   1.503       .  S
C55         C773   1.471       .  S
O57          C60   1.258       .  A
O58          C60   1.250       .  A
C60         C788   1.454       .  S
O61          C66   1.270       .  A
O62          C64   1.274       .  A
C63          O65   1.279       .  A
C63         C740   1.530       .  S
C64         C752   1.460       .  S
C66         C761   1.424       .  S
Fe67         O83   2.029   1_545  S
Fe67         O73   2.037       .  S
Fe67         O80   2.109   1_545  S
Fe67         O72   1.957       .  S
Fe67         O78   1.886       .  S
Fe68         O71   2.016       .  S
Fe68         O75   2.104   1_545  S
Fe68         O79   1.984       .  S
Fe68         O84   2.072       .  S
Fe68         O78   1.923       .  S
Fe69         O87   2.165       .  S
Fe69         O74   2.173       .  S
Fe69         O81   2.090       .  S
Fe69         O70   2.230       .  S
Fe69         O78   1.898       .  S
O70          C77   1.307       .  A
O71          C85   1.281       .  A
O72          C77   1.248       .  A
O73          C76   1.271       .  A
O74          C86   1.286       .  A
O75          C88   1.256       .  A
C76          O81   1.274       .  A
C76         C776   1.472       .  S
C77         C836   1.527       .  S
O79          C82   1.274   1_545  A
O80          C82   1.294       .  A
C82         C716   1.447       .  S
O83          C88   1.239       .  A
O84          C86   1.262       .  A
C85          O87   1.308       .  A
C85         C701   1.461       .  S
C86         C689   1.546       .  S
C88         C728   1.480       .  S
Fe89        O105   2.016       .  S
Fe89         O95   2.022   1_565  S
Fe89        O102   2.072       .  S
Fe89         O94   2.015   1_565  S
Fe89        O100   1.952   1_565  S
Fe90         O93   2.040       .  S
Fe90         O97   2.066   1_545  S
Fe90        O101   2.070   1_545  S
Fe90        O106   2.071       .  S
Fe90        O100   1.902       .  S
Fe91        O109   2.129       .  S
Fe91         O96   2.146       .  S
Fe91        O103   2.149       .  S
Fe91         O92   2.214       .  S
Fe91        O100   1.928       .  S
O92          C99   1.281       .  A
O93         C107   1.279       .  A
O94          C99   1.232       .  A
O95          C98   1.277       .  A
O96         C108   1.280       .  A
O97         C110   1.263       .  A
C98         O103   1.294       .  A
C98         C665   1.469       .  S
C99         C653   1.537       .  S
O101        C104   1.287       .  A
O102        C104   1.281       .  A
C104        C824   1.453       .  S
O105        C110   1.248       .  A
O106        C108   1.264       .  A
C107        O109   1.293       .  A
C107        C644   1.470       .  S
C108        C629   1.532       .  S
C110        C680   1.463       .  S
Fe111       O127   2.115       .  S
Fe111       O117   2.014   1_565  S
Fe111       O124   1.986       .  S
Fe111       O116   2.025   1_565  S
Fe111       O122   1.923   1_565  S
Fe112       O115   2.128       .  S
Fe112       O119   2.027   1_545  S
Fe112       O123   2.076   1_545  S
Fe112       O128   2.000       .  S
Fe112       O122   1.897       .  S
Fe113       O131   2.107       .  S
Fe113       O118   2.157       .  S
Fe113       O125   2.240       .  S
Fe113       O114   2.147       .  S
Fe113       O122   1.910       .  S
O114        C121   1.291       .  A
O115        C129   1.271       .  A
O116        C121   1.276       .  A
O117        C120   1.219       .  A
O118        C130   1.302       .  A
O119        C132   1.283       .  A
C120        O125   1.274       .  A
C120        C608   1.541       .  S
C121        C668   1.467       .  S
O123        C126   1.263       .  A
O124        C126   1.243       .  A
C126        C617   1.449       .  S
O127        C132   1.290       .  A
O128        C130   1.272       .  A
C129        O131   1.270       .  A
C129        C581   1.526       .  S
C130        C593   1.467       .  S
C132        C884   1.448       .  S
Fe133       O149   2.030       .  S
Fe133       O139   2.129       .  S
Fe133       O146   2.056       .  S
Fe133       O138   1.996       .  S
Fe133       O144   1.894       .  S
Fe134       O137   2.008       .  S
Fe134       O141   2.084       .  S
Fe134       O145   1.995       .  S
Fe134       O150   2.132       .  S
Fe134       O144   1.866       .  S
Fe135       O153   2.179       .  S
Fe135       O140   2.132       .  S
Fe135       O147   2.032       .  S
Fe135       O136   2.233       .  S
Fe135       O144   1.936       .  S
O136        C143   1.292       .  A
O137        C151   1.247       .  A
O138        C143   1.228       .  A
O139        C142   1.286       .  A
O140        C152   1.290       .  A
O141        C154   1.275       .  A
C142        O147   1.269       .  A
C142        C557   1.504       .  S
C143        C656   1.523       .  S
O145        C148   1.261       .  A
O146        C148   1.272       .  A
C148        C713   1.439       .  S
O149        C154   1.258       .  A
O150        C152   1.283       .  A
C151        O153   1.292       .  A
C151        C545   1.479       .  S
C152        C533   1.533       .  S
C154        C569   1.486   1_565  S
Fe155       O171   2.034       .  S
Fe155       O161   2.008       .  S
Fe155       O168   2.010   1_565  S
Fe155       O160   2.022       .  S
Fe155       O166   1.957       .  S
Fe156       O159   2.117       .  S
Fe156       O163   2.052       .  S
Fe156       O167   2.085       .  S
Fe156       O172   2.015       .  S
Fe156       O166   1.914       .  S
Fe157       O175   2.127       .  S
Fe157       O162   2.135       .  S
Fe157       O169   2.194       .  S
Fe157       O158   2.169       .  S
Fe157       O166   1.934       .  S
O158        C165   1.298       .  A
O159        C173   1.277       .  A
O160        C165   1.275       .  A
O161        C164   1.238       .  A
O162        C174   1.294       .  A
O163        C176   1.279       .  A
C164        O169   1.274       .  A
C164        C605   1.512       .  S
C165        C560   1.488       .  S
O167        C170   1.265   1_565  A
O168        C170   1.249       .  A
C170        C521   1.465       .  S
O171        C176   1.273       .  A
O172        C174   1.267       .  A
C173        O175   1.276       .  A
C173        C500   1.542       .  S
C174        C509   1.492       .  S
C176        C764   1.430       .  S
Fe177       O193   2.040       .  S
Fe177       O183   2.000       .  S
Fe177       O190   2.020   1_455  S
Fe177       O182   2.004       .  S
Fe177       O188   1.941       .  S
Fe178       O181   2.080       .  S
Fe178       O185   2.063       .  S
Fe178       O189   2.062       .  S
Fe178       O194   2.024       .  S
Fe178       O188   1.889       .  S
Fe179       O197   2.171       .  S
Fe179       O184   2.087       .  S
Fe179       O191   2.176       .  S
Fe179       O180   2.190       .  S
Fe179       O188   1.920       .  S
O180        C187   1.308       .  A
O181        C195   1.270       .  A
O182        C187   1.278       .  A
O183        C186   1.235       .  A
O184        C196   1.278       .  A
O185        C198   1.285       .  A
C186        O191   1.270       .  A
C186        C476   1.500       .  S
C187        C488   1.493       .  S
O189        C192   1.255   1_455  A
O190        C192   1.248       .  A
C192        C872   1.450       .  S
O193        C198   1.277       .  A
O194        C196   1.267       .  A
C195        O197   1.291       .  A
C195        C497   1.543       .  S
C196        C785   1.446       .  S
C198        C464   1.450   1_455  S
Fe199       O215   2.024       .  S
Fe199       O205   2.113       .  S
Fe199       O212   2.098       .  S
Fe199       O204   1.993       .  S
Fe199       O210   1.898       .  S
Fe200       O203   2.001       .  S
Fe200       O207   2.115       .  S
Fe200       O211   1.973       .  S
Fe200       O216   2.129       .  S
Fe200       O210   1.920       .  S
Fe201       O219   2.169       .  S
Fe201       O206   2.122       .  S
Fe201       O213   2.050       .  S
Fe201       O202   2.206       .  S
Fe201       O210   1.923       .  S
O202        C209   1.295       .  A
O203        C217   1.262       .  A
O204        C209   1.241       .  A
O205        C208   1.283       .  A
O206        C218   1.284       .  A
O207        C220   1.272   1_455  A
C208        O213   1.269       .  A
C208        C485   1.484       .  S
C209        C452   1.500       .  S
O211        C214   1.260       .  A
O212        C214   1.282       .  A
C214        C437   1.457       .  S
O215        C220   1.250   1_455  A
O216        C218   1.282       .  A
C217        O219   1.296       .  A
C217        C725   1.473       .  S
C218        C536   1.520       .  S
C220        C812   1.484       .  S
Fe221       O237   2.081       .  S
Fe221       O227   2.020       .  S
Fe221       O234   1.998   1_655  S
Fe221       O226   2.015       .  S
Fe221       O232   1.925       .  S
Fe222       O225   2.082       .  S
Fe222       O229   2.037       .  S
Fe222       O233   2.074       .  S
Fe222       O238   1.999       .  S
Fe222       O232   1.894       .  S
Fe223       O241   2.120       .  S
Fe223       O228   2.121       .  S
Fe223       O235   2.229       .  S
Fe223       O224   2.166       .  S
Fe223       O232   1.925       .  S
O224        C231   1.298       .  A
O225        C239   1.267       .  A
O226        C231   1.277       .  A
O227        C230   1.217       .  A
O228        C240   1.290       .  A
O229        C242   1.283       .  A
C230        O235   1.276       .  A
C230        C473   1.526       .  S
C231        C425   1.472       .  S
O233        C236   1.260   1_655  A
O234        C236   1.245       .  A
C236        C749   1.458       .  S
O237        C242   1.279       .  A
O238        C240   1.269       .  A
C239        O241   1.279       .  A
C239        C584   1.516       .  S
C240        C917   1.459       .  S
C242        C416   1.445   1_655  S
Fe243       O259   2.029       .  S
Fe243       O249   2.066       .  S
Fe243       O256   2.113   1_655  S
Fe243       O248   1.965       .  S
Fe243       O254   1.900       .  S
Fe244       O247   2.017       .  S
Fe244       O251   2.106       .  S
Fe244       O255   1.908       .  S
Fe244       O260   2.119       .  S
Fe244       O254   1.904       .  S
Fe245       O263   2.184       .  S
Fe245       O250   2.148       .  S
Fe245       O257   2.061       .  S
Fe245       O246   2.197       .  S
Fe245       O254   1.927       .  S
O246        C253   1.300       .  A
O247        C261   1.253       .  A
O248        C253   1.248       .  A
O249        C252   1.276       .  A
O250        C262   1.285       .  A
O251        C264   1.256   1_655  A
C252        O257   1.273       .  A
C252        C428   1.483       .  S
C253        C449   1.497       .  S
O255        C258   1.259       .  A
O256        C258   1.291   1_455  A
C258        C401   1.432       .  S
O259        C264   1.241   1_655  A
O260        C262   1.273       .  A
C261        O263   1.296       .  A
C261        C848   1.477       .  S
C262        C632   1.542       .  S
C264        C704   1.477       .  S
Fe265       O281   2.008       .  S
Fe265       O271   2.024       .  S
Fe265       O278   2.129   1_655  S
Fe265       O270   1.997       .  S
Fe265       O276   1.924       .  S
Fe266       O269   1.996       .  S
Fe266       O273   2.089       .  S
Fe266       O277   1.976       .  S
Fe266       O282   2.060       .  S
Fe266       O276   1.910       .  S
Fe267       O285   2.191       .  S
Fe267       O272   2.131       .  S
Fe267       O279   2.122       .  S
Fe267       O268   2.196       .  S
Fe267       O276   1.892       .  S
O268        C275   1.297       .  A
O269        C283   1.279       .  A
O270        C275   1.246       .  A
O271        C274   1.264       .  A
O272        C284   1.271       .  A
O273        C286   1.260   1_655  A
C274        O279   1.279       .  A
C274        C389   1.475       .  S
C275        C377   1.502       .  S
O277        C280   1.269       .  A
O278        C280   1.294   1_455  A
C280        C440   1.444   1_655  S
O281        C286   1.238   1_655  A
O282        C284   1.253       .  A
C283        O285   1.314       .  A
C283        C677   1.474       .  S
C284        C797   1.513       .  S
C286        C548   1.466       .  S
Fe287       O303   2.048       .  S
Fe287       O293   2.021       .  S
Fe287       O300   2.036   1_655  S
Fe287       O292   2.031       .  S
Fe287       O298   1.947       .  S
Fe288       O291   2.095       .  S
Fe288       O295   2.064       .  S
Fe288       O299   2.071       .  S
Fe288       O304   2.011       .  S
Fe288       O298   1.904       .  S
Fe289       O307   2.140       .  S
Fe289       O294   2.089       .  S
Fe289       O301   2.165       .  S
Fe289       O290   2.152       .  S
Fe289       O298   1.930       .  S
O290        C297   1.298       .  A
O291        C305   1.273       .  A
O292        C297   1.282       .  A
O293        C296   1.243       .  A
O294        C306   1.279       .  A
O295        C308   1.278       .  A
C296        O301   1.274       .  A
C296        C368   1.498       .  S
C297        C392   1.479       .  S
O299        C302   1.261   1_655  A
O300        C302   1.251       .  A
C302        C512   1.477       .  S
O303        C308   1.284       .  A
O304        C306   1.268       .  A
C305        O307   1.284       .  A
C305        C860   1.545       .  S
C306        C620   1.463       .  S
C308        C461   1.456       .  S
Fe309       O325   2.045   1_455  S
Fe309       O315   2.116       .  S
Fe309       O322   2.044   1_455  S
Fe309       O314   1.988       .  S
Fe309       O320   1.905       .  S
Fe310       O313   2.002       .  S
Fe310       O317   2.090       .  S
Fe310       O321   1.986       .  S
Fe310       O326   2.134       .  S
Fe310       O320   1.861       .  S
Fe311       O329   2.169       .  S
Fe311       O316   2.147       .  S
Fe311       O323   2.039       .  S
Fe311       O312   2.223       .  S
Fe311       O320   1.961       .  S
O312        C319   1.285       .  A
O313        C327   1.253       .  A
O314        C319   1.221       .  A
O315        C318   1.279       .  A
O316        C328   1.291       .  A
O317        C330   1.274   1_455  A
C318        O323   1.268       .  A
C318        C353   1.464       .  S
C319        C380   1.505       .  S
O321        C324   1.266       .  A
O322        C324   1.264   1_655  A
C324        C404   1.428   1_455  S
O325        C330   1.264       .  A
O326        C328   1.280       .  A
C327        O329   1.292       .  A
C327        C572   1.471       .  S
C328        C692   1.542       .  S
C330        C641   1.479       .  S
Fe331       O347   2.047       .  S
Fe331       O337   2.015       .  S
Fe331       O344   2.021   1_455  S
Fe331       O336   2.006       .  S
Fe331       O342   1.938       .  S
Fe332       O335   2.072       .  S
Fe332       O339   2.073       .  S
Fe332       O343   2.057       .  S
Fe332       O348   2.013       .  S
Fe332       O342   1.894       .  S
Fe333       O351   2.142       .  S
Fe333       O338   2.115       .  S
Fe333       O345   2.208       .  S
Fe333       O334   2.158       .  S
Fe333       O342   1.926       .  S
O334        C341   1.298       .  A
O335        C349   1.269       .  A
O336        C341   1.280       .  A
O337        C340   1.232       .  A
O338        C350   1.290       .  A
O339        C352   1.284       .  A
C340        O345   1.276       .  A
C340        C365   1.523       .  S
C341        C356   1.466       .  S
O343        C346   1.258   1_455  A
O344        C346   1.248       .  A
C346        C596   1.462       .  S
O347        C352   1.281       .  A
O348        C350   1.271       .  A
C349        O351   1.282       .  A
C349        C737   1.536       .  S
C350        C524   1.467       .  S
C352        C413   1.457       .  S
C353        C354   1.404       .  A
C353        C358   1.406       .  A
C354        C355   1.407   1_556  A
C354        H363   1.083       .  S
C355        C356   1.414       .  A
C355        S359   1.802       .  S
C356        C357   1.399       .  A
C357        C358   1.386   1_554  A
C357        H364   1.084       .  S
C358        S360   1.798       .  S
S359        H362   1.405       .  S
S360        H361   1.404       .  S
C365        C366   1.420   1_455  A
C365        C370   1.416       .  A
C366        C367   1.400       .  A
C366        H375   1.082       .  S
C367        C368   1.404       .  A
C367        S371   1.804       .  S
C368        C369   1.417       .  A
C369        C370   1.426   1_655  A
C369        H376   1.077       .  S
C370        S372   1.799       .  S
S371        H374   1.407       .  S
S372        H373   1.404       .  S
C377        C378   1.413       .  A
C377        C382   1.409       .  A
C378        C379   1.415   1_655  A
C378        H387   1.066       .  S
C379        C380   1.409       .  A
C379        S383   1.801       .  S
C380        C381   1.421       .  A
C381        C382   1.411   1_455  A
C381        H388   1.075       .  S
C382        S384   1.803       .  S
S383        H386   1.406       .  S
S384        H385   1.407       .  S
C389        C390   1.401       .  A
C389        C394   1.413       .  A
C390        C391   1.405   1_556  A
C390        H399   1.084       .  S
C391        C392   1.416       .  A
C391        S395   1.792       .  S
C392        C393   1.399       .  A
C393        C394   1.395   1_554  A
C393        H400   1.084       .  S
C394        S396   1.800       .  S
S395        H398   1.406       .  S
S396        H397   1.404       .  S
C401        C402   1.397       .  A
C401        C406   1.414       .  A
C402        C403   1.389       .  A
C402        H411   1.084       .  S
C403        C404   1.409       .  A
C403        S407   1.801       .  S
C404        C405   1.392       .  A
C405        C406   1.376       .  A
C405        H412   1.084       .  S
C406        S408   1.817       .  S
S407        H410   1.406       .  S
S408        H409   1.406       .  S
C413        C414   1.397   1_455  A
C413        C418   1.414       .  A
C414        C415   1.388       .  A
C414        H423   1.085       .  S
C415        C416   1.415   1_655  A
C415        S419   1.793       .  S
C416        C417   1.394       .  A
C417        C418   1.387       .  A
C417        H424   1.086       .  S
C418        S420   1.794       .  S
S419        H422   1.386       .  S
S420        H421   1.407       .  S
C425        C426   1.405       .  A
C425        C430   1.407       .  A
C426        C427   1.389       .  A
C426        H435   1.085       .  S
C427        C428   1.413       .  A
C427        S431   1.804       .  S
C428        C429   1.415       .  A
C429        C430   1.403       .  A
C429        H436   1.084       .  S
C430        S432   1.803       .  S
S431        H434   1.401       .  S
S432        H433   1.406       .  S
C437        C438   1.400   1_455  A
C437        C442   1.414       .  A
C438        C439   1.391       .  A
C438        H447   1.083       .  S
C439        C440   1.419   1_655  A
C439        S443   1.802       .  S
C440        C441   1.394       .  A
C441        C442   1.390       .  A
C441        H448   1.083       .  S
C442        S444   1.810       .  S
S443        H446   1.405       .  S
S444        H445   1.407       .  S
C449        C450   1.417       .  A
C449        C454   1.415       .  A
C450        C451   1.419   1_655  A
C450        H459   1.084       .  S
C451        C452   1.417       .  A
C451        S455   1.802       .  S
C452        C453   1.412       .  A
C453        C454   1.413   1_455  A
C453        H460   1.083       .  S
C454        S456   1.801       .  S
S455        H458   1.406       .  S
S456        H457   1.406       .  S
C461        C462   1.397   1_655  A
C461        C466   1.414       .  A
C462        C463   1.390       .  A
C462        H471   1.084       .  S
C463        C464   1.417   1_455  A
C463        S467   1.793       .  S
C464        C465   1.391       .  A
C465        C466   1.378       .  A
C465        H472   1.082       .  S
C466        S468   1.800       .  S
S467        H470   1.397       .  S
S468        H469   1.407       .  S
C473        C474   1.427       .  A
C473        C478   1.411       .  A
C474        C475   1.394   1_655  A
C474        H483   1.082   1_655  S
C475        C476   1.400       .  A
C475        S479   1.806       .  S
C476        C477   1.423       .  A
C477        C478   1.421   1_455  A
C477        H484   1.071       .  S
C478        S480   1.802       .  S
S479        H482   1.407       .  S
S480        H481   1.405       .  S
C485        C486   1.398       .  A
C485        C490   1.418       .  A
C486        C487   1.396       .  A
C486        H495   1.085       .  S
C487        C488   1.423       .  A
C487        S491   1.807       .  S
C488        C489   1.406       .  A
C489        C490   1.411       .  A
C489        H496   1.083       .  S
C490        S492   1.802       .  S
S491        H494   1.408       .  S
S492        H493   1.406       .  S
C497        C498   1.418       .  A
C497        C502   1.426       .  A
C498        C499   1.436       .  A
C498        H507   1.083       .  S
C499        C500   1.432       .  A
C499        S503   1.802       .  S
C500        C501   1.409       .  A
C501        C502   1.413       .  A
C501        H508   1.083       .  S
C502        S504   1.803       .  S
S503        H506   1.403       .  S
S504        H505   1.404       .  S
C509        C510   1.405       .  A
C509        C514   1.431       .  A
C510        C511   1.406       .  A
C510        H519   1.083       .  S
C511        C512   1.417       .  A
C511        S515   1.803       .  S
C512        C513   1.393       .  A
C513        C514   1.389       .  A
C513        H520   1.085       .  S
C514        S516   1.808       .  S
S515        H518   1.407       .  S
S516        H517   1.408       .  S
C521        C522   1.398       .  A
C521        C526   1.416       .  A
C522        C523   1.397       .  A
C522        H531   1.084       .  S
C523        C524   1.417       .  A
C523        S527   1.802       .  S
C524        C525   1.397       .  A
C525        C526   1.393       .  A
C525        H532   1.084       .  S
C526        S528   1.798       .  S
S527        H530   1.406       .  S
S528        H529   1.406       .  S
C533        C534   1.413       .  A
C533        C538   1.419       .  A
C534        C535   1.427       .  A
C534        H543   1.082       .  S
C535        C536   1.424       .  A
C535        S539   1.800       .  S
C536        C537   1.398       .  A
C537        C538   1.409       .  A
C537        H544   1.077       .  S
C538        S540   1.793       .  S
S539        H542   1.405       .  S
S540        H541   1.407       .  S
C545        C546   1.398       .  A
C545        C550   1.432       .  A
C546        C547   1.403       .  A
C546        H555   1.083       .  S
C547        C548   1.420       .  A
C547        S551   1.799       .  S
C548        C549   1.385       .  A
C549        C550   1.387       .  A
C549        H556   1.084       .  S
C550        S552   1.810       .  S
S551        H554   1.407       .  S
S552        H553   1.407       .  S
C557        C558   1.418       .  A
C557        C562   1.416       .  A
C558        C559   1.402   1_556  A
C558        H567   1.083       .  S
C559        C560   1.407       .  A
C559        S563   1.803       .  S
C560        C561   1.410       .  A
C561        C562   1.404   1_554  A
C561        H568   1.084       .  S
C562        S564   1.799       .  S
S563        H566   1.407       .  S
S564        H565   1.404       .  S
C569        C570   1.398       .  A
C569        C574   1.423       .  A
C570        C571   1.384       .  A
C570        H579   1.081       .  S
C571        C572   1.421       .  A
C571        S575   1.815       .  S
C572        C573   1.399       .  A
C573        C574   1.407       .  A
C573        H580   1.084       .  S
C574        S576   1.799       .  S
S575        H578   1.406       .  S
S576        H577   1.408       .  S
C581        C582   1.407       .  A
C581        C586   1.423       .  A
C582        C583   1.421       .  A
C582        H591   1.081       .  S
C583        C584   1.426       .  A
C583        S587   1.800       .  S
C584        C585   1.404       .  A
C585        C586   1.414       .  A
C585        H592   1.084       .  S
C586        S588   1.790       .  S
S587        H590   1.404       .  S
S588        H589   1.406       .  S
C593        C594   1.401       .  A
C593        C598   1.422       .  A
C594        C595   1.404       .  A
C594        H603   1.083       .  S
C595        C596   1.416       .  A
C595        S599   1.802       .  S
C596        C597   1.392       .  A
C597        C598   1.384       .  A
C597        H604   1.083       .  S
C598        S600   1.818       .  S
S599        H602   1.407       .  S
S600        H601   1.406       .  S
C605        C606   1.420       .  A
C605        C610   1.404       .  A
C606        C607   1.435       .  A
C606        H615   1.075       .  S
C607        C608   1.420   1_565  A
C607        S611   1.794   1_565  S
C608        C609   1.425   1_545  A
C609        C610   1.395       .  A
C609        H616   1.082       .  S
C610        S612   1.807       .  S
S611        H614   1.405       .  S
S612        H613   1.408       .  S
C617        C618   1.400       .  A
C617        C622   1.407       .  A
C618        C619   1.391       .  A
C618        H627   1.085       .  S
C619        C620   1.410       .  A
C619        S623   1.801       .  S
C620        C621   1.409       .  A
C621        C622   1.396       .  A
C621        H628   1.084       .  S
C622        S624   1.806       .  S
S623        H626   1.407       .  S
S624        H625   1.404       .  S
C629        C630   1.421       .  A
C629        C634   1.419       .  A
C630        C631   1.435       .  A
C630        H639   1.083       .  S
C631        C632   1.426       .  A
C631        S635   1.798       .  S
C632        C633   1.414       .  A
C633        C634   1.406       .  A
C633        H640   1.082       .  S
C634        S636   1.801       .  S
S635        H638   1.407       .  S
S636        H637   1.397       .  S
C641        C642   1.401       .  A
C641        C646   1.414       .  A
C642        C643   1.383       .  A
C642        H651   1.076       .  S
C643        C644   1.401       .  A
C643        S647   1.804       .  S
C644        C645   1.411       .  A
C645        C646   1.415       .  A
C645        H652   1.081       .  S
C646        S648   1.802       .  S
S647        H650   1.406       .  S
S648        H649   1.404       .  S
C653        C654   1.430   1_545  A
C653        C658   1.412   1_545  A
C654        C655   1.415       .  A
C654        H663   1.083       .  S
C655        C656   1.408       .  A
C655        S659   1.799       .  S
C656        C657   1.429       .  A
C657        C658   1.421       .  A
C657        H664   1.084       .  S
C658        S660   1.798   1_565  S
S659        H662   1.406       .  S
S660        H661   1.406       .  S
C665        C666   1.403       .  A
C665        C670   1.413       .  A
C666        C667   1.401   1_556  A
C666        H675   1.084       .  S
C667        C668   1.412       .  A
C667        S671   1.802       .  S
C668        C669   1.400       .  A
C669        C670   1.395   1_554  A
C669        H676   1.085       .  S
C670        S672   1.806       .  S
S671        H674   1.404       .  S
S672        H673   1.403       .  S
C677        C678   1.404       .  A
C677        C682   1.421       .  A
C678        C679   1.410       .  A
C678        H687   1.083       .  S
C679        C680   1.415       .  A
C679        S683   1.802       .  S
C680        C681   1.390       .  A
C681        C682   1.385       .  A
C681        H688   1.084       .  S
C682        S684   1.805       .  S
S683        H686   1.407       .  S
S684        H685   1.408       .  S
C689        C690   1.411       .  A
C689        C694   1.429       .  A
C690        C691   1.404       .  A
C690        H699   1.083       .  S
C691        C692   1.418       .  A
C691        S695   1.791       .  S
C692        C693   1.422       .  A
C693        C694   1.441       .  A
C693        H700   1.083       .  S
C694        S696   1.797       .  S
S695        H698   1.406       .  S
S696        H697   1.406       .  S
C701        C702   1.395       .  A
C701        C706   1.417       .  A
C702        C703   1.393       .  A
C702        H711   1.084       .  S
C703        C704   1.414       .  A
C703        S707   1.796       .  S
C704        C705   1.403       .  A
C705        C706   1.405       .  A
C705        H712   1.084       .  S
C706        S708   1.802       .  S
S707        H710   1.407       .  S
S708        H709   1.400       .  S
C713        C714   1.381   1_565  A
C713        C718   1.412       .  A
C714        C715   1.374       .  A
C714        H723   1.085       .  S
C715        C716   1.419   1_545  A
C715        S719   1.782       .  S
C716        C717   1.386       .  A
C717        C718   1.386       .  A
C717        H724   1.083       .  S
C718        S720   1.786       .  S
S719        H722   1.392       .  S
S720        H721   1.407       .  S
C725        C726   1.412       .  A
C725        C730   1.405       .  A
C726        C727   1.409       .  A
C726        H735   1.084       .  S
C727        C728   1.413       .  A
C727        S731   1.803       .  S
C728        C729   1.401       .  A
C729        C730   1.392       .  A
C729        H736   1.078       .  S
C730        S732   1.790       .  S
S731        H734   1.406       .  S
S732        H733   1.407       .  S
C737        C738   1.414       .  A
C737        C742   1.422       .  A
C738        C739   1.409       .  A
C738        H747   1.084       .  S
C739        C740   1.423       .  A
C739        S743   1.805       .  S
C740        C741   1.419       .  A
C741        C742   1.429       .  A
C741        H748   1.083       .  S
C742        S744   1.798       .  S
S743        H746   1.397       .  S
S744        H745   1.407       .  S
C749        C750   1.404       .  A
C749        C754   1.405       .  A
C750        C751   1.389       .  A
C750        H759   1.085       .  S
C751        C752   1.408       .  A
C751        S755   1.801       .  S
C752        C753   1.408       .  A
C753        C754   1.395       .  A
C753        H760   1.084       .  S
C754        S756   1.803       .  S
S755        H758   1.406       .  S
S756        H757   1.407       .  S
C761        C762   1.401   1_565  A
C761        C766   1.393       .  A
C762        C763   1.379       .  A
C762        H771   1.084       .  S
C763        C764   1.396   1_545  A
C763        S767   1.800       .  S
C764        C765   1.407       .  A
C765        C766   1.386       .  A
C765        H772   1.084       .  S
C766        S768   1.801       .  S
S767        H770   1.406       .  S
S768        H769   1.406       .  S
C773        C774   1.401       .  A
C773        C778   1.413       .  A
C774        C775   1.406       .  A
C774        H783   1.084       .  S
C775        C776   1.420       .  A
C775        S779   1.803       .  S
C776        C777   1.398       .  A
C777        C778   1.387       .  A
C777        H784   1.085       .  S
C778        S780   1.803       .  S
S779        H782   1.394       .  S
S780        H781   1.400       .  S
C785        C786   1.396       .  A
C785        C790   1.408       .  A
C786        C787   1.380       .  A
C786        H795   1.085       .  S
C787        C788   1.408       .  A
C787        S791   1.800       .  S
C788        C789   1.405       .  A
C789        C790   1.404       .  A
C789        H796   1.083       .  S
C790        S792   1.802       .  S
S791        H794   1.405       .  S
S792        H793   1.407       .  S
C797        C798   1.405       .  A
C797        C802   1.423       .  A
C798        C799   1.416       .  A
C798        H807   1.084       .  S
C799        C800   1.423       .  A
C799        S803   1.799       .  S
C800        C801   1.407       .  A
C801        C802   1.420       .  A
C801        H808   1.082       .  S
C802        S804   1.801       .  S
S803        H806   1.406       .  S
S804        H805   1.406       .  S
C809        C810   1.404       .  A
C809        C814   1.410       .  A
C810        C811   1.388       .  A
C810        H819   1.080       .  S
C811        C812   1.412       .  A
C811        S815   1.802       .  S
C812        C813   1.413       .  A
C813        C814   1.410       .  A
C813        H820   1.084       .  S
C814        S816   1.801       .  S
S815        H818   1.407       .  S
S816        H817   1.406       .  S
C821        C822   1.415       .  A
C821        C826   1.406       .  A
C822        C823   1.387       .  A
C822        H831   1.084       .  S
C823        C824   1.394       .  A
C823        S827   1.802       .  S
C824        C825   1.408       .  A
C825        C826   1.402       .  A
C825        H832   1.083   1_565  S
C826        S828   1.802   1_565  S
S827        H830   1.407       .  S
S828        H829   1.401       .  S
C833        C834   1.422       .  A
C833        C838   1.416       .  A
C834        C835   1.432       .  A
C834        H843   1.084       .  S
C835        C836   1.423   1_565  A
C835        S839   1.794   1_565  S
C836        C837   1.419   1_545  A
C837        C838   1.408       .  A
C837        H844   1.085       .  S
C838        S840   1.807       .  S
S839        H842   1.406       .  S
S840        H841   1.407       .  S
C845        C846   1.418       .  A
C845        C850   1.402       .  A
C846        C847   1.407       .  A
C846        H855   1.083       .  S
C847        C848   1.405       .  A
C847        S851   1.803       .  S
C848        C849   1.412       .  A
C849        C850   1.381       .  A
C849        H856   1.078       .  S
C850        S852   1.803       .  S
S851        H854   1.404       .  S
S852        H853   1.406       .  S
C857        C858   1.409       .  A
C857        C862   1.427       .  A
C858        C859   1.413       .  A
C858        H867   1.084       .  S
C859        C860   1.432       .  A
C859        S863   1.804       .  S
C860        C861   1.417       .  A
C861        C862   1.432       .  A
C861        H868   1.083       .  S
C862        S864   1.796       .  S
S863        H866   1.403       .  S
S864        H865   1.407       .  S
C869        C870   1.400       .  A
C869        C874   1.410       .  A
C870        C871   1.379       .  A
C870        H879   1.087       .  S
C871        C872   1.403       .  A
C871        S875   1.801       .  S
C872        C873   1.406       .  A
C873        C874   1.404       .  A
C873        H880   1.084       .  S
C874        S876   1.803       .  S
S875        H878   1.405       .  S
S876        H877   1.404       .  S
C881        C882   1.403       .  A
C881        C886   1.398   1_565  A
C882        C883   1.391       .  A
C882        H891   1.083       .  S
C883        C884   1.400       .  A
C883        S887   1.802       .  S
C884        C885   1.408   1_565  A
C885        C886   1.392       .  A
C885        H892   1.085       .  S
C886        S888   1.802       .  S
S887        H890   1.407       .  S
S888        H889   1.405       .  S
C893        C894   1.423       .  A
C893        C898   1.419       .  A
C894        C895   1.392   1_565  A
C894        H903   1.082       .  S
C895        C896   1.403       .  A
C895        S899   1.806       .  S
C896        C897   1.417   1_545  A
C897        C898   1.429       .  A
C897        H904   1.072       .  S
C898        S900   1.797       .  S
S899        H902   1.408       .  S
S900        H901   1.406       .  S
C905        C906   1.405       .  A
C905        C910   1.414       .  A
C906        C907   1.394       .  A
C906        H915   1.085       .  S
C907        C908   1.411       .  A
C907        S911   1.805       .  S
C908        C909   1.407       .  A
C909        C910   1.409       .  A
C909        H916   1.084       .  S
C910        S912   1.801       .  S
S911        H914   1.405       .  S
S912        H913   1.405       .  S
C917        C918   1.401       .  A
C917        C922   1.417       .  A
C918        C919   1.403       .  A
C918        H927   1.083       .  S
C919        C920   1.415       .  A
C919        S923   1.802       .  S
C920        C921   1.391       .  A
C921        C922   1.373       .  A
C921        H928   1.086       .  S
C922        S924   1.805       .  S
S923        H926   1.407       .  S
S924        H925   1.401       .  S
