geometry optimzed in LAMMPS
_audit_creation_date              2020-12-01 
_audit_creation_method            'lammps2cif' 
_symmetry_space_group_name_H-M    'P1' 
_symmetry_Int_Tables_number       1 
_symmetry_cell_setting            triclinic 
loop_ 
_symmetry_equiv_pos_as_xyz 
  x,y,z 
_cell_length_a                    36.83774019 
_cell_length_b                    36.684494224873546 
_cell_length_c                    40.33056626147357 
_cell_angle_alpha                 89.80415058694919 
_cell_angle_beta                  89.81452923580345 
_cell_angle_gamma                 90.15878638845858 
loop_ 
_atom_site_label 
_atom_site_type_symbol 
_atom_site_fract_x 
_atom_site_fract_y 
_atom_site_fract_z 
_atom_site_charge 
O1          O  0.88165388  0.17010707  0.70894813    -0.85900
O2          O  0.81712021  0.17661401  0.74046842    -0.82900
C3          C  0.79388644  0.18224744  0.76233991     0.97600
O4          O  0.79909638  0.16876188  0.79100347    -0.83000
O5          O  0.82375095  0.09431401  0.78313127    -0.85600
C6          C  0.84553429  0.06901072  0.77514377     1.02100
O7          O  0.87932279  0.07412977  0.77747591    -0.78400
O8          O  0.88590800  0.11169336  0.71968111    -0.78600
C9          C  0.88346553  0.13735567  0.69917676     1.02100
O10         O  0.91468490  0.20726277  0.76348423    -0.85900
O11         O  0.85094132  0.22005904  0.79294763    -0.82900
C12         C  0.85526531  0.21386594  0.82370414     0.97600
O13         O  0.85772336  0.18142363  0.83437894    -0.83000
O14         O  0.87935727  0.10903738  0.83438314    -0.85600
C15         C  0.91388025  0.11214368  0.83327664     1.02100
O16         O  0.92906295  0.12387849  0.80736954    -0.78400
O17         O  0.94140203  0.15692439  0.74757436    -0.78500
C18         C  0.94238210  0.19051696  0.75423321     1.02000
Cr19       Cr  0.86624034  0.19055166  0.75296375     1.93700
Cr20       Cr  0.84171242  0.13842728  0.80822401     1.93200
Cr21       Cr  0.90640157  0.11895199  0.76393879     1.39100
O22         O  0.87179100  0.14965766  0.77532369    -1.23600
O23         O  0.61190290  0.37403409  0.78699143    -0.85900
O24         O  0.61708829  0.41556895  0.73041894    -0.82900
C25         C  0.65071372  0.42241491  0.72921646     0.97600
O26         O  0.67294580  0.39791964  0.72021806    -0.83000
O27         O  0.70001015  0.32438074  0.71260993    -0.85600
C28         C  0.70575942  0.31063574  0.74116719     1.02100
O29         O  0.68222735  0.31469031  0.76313960    -0.78400
O30         O  0.61623531  0.31508088  0.79402934    -0.78600
C31         C  0.61275671  0.34672455  0.80589967     1.02100
O32         O  0.55849697  0.32875564  0.75635214    -0.85900
O33         O  0.56871991  0.36541586  0.69885871    -0.82900
C34         C  0.58253976  0.37783908  0.67264928     0.97600
O35         O  0.61691228  0.38155821  0.67040085    -0.83000
O36         O  0.64092037  0.30974461  0.66924651    -0.85600
C37         C  0.64570606  0.27726778  0.67912626     1.02100
O38         O  0.65193627  0.27107656  0.70949275    -0.78400
O39         O  0.58673259  0.28036857  0.73759972    -0.78500
C40         C  0.55860728  0.29563446  0.74794868     1.02000
Cr41       Cr  0.59179169  0.36895555  0.74207374     1.93700
Cr42       Cr  0.65601714  0.35309566  0.69566804     1.93200
Cr43       Cr  0.63417821  0.29842604  0.74970389     1.39100
O44         O  0.62716536  0.34012935  0.72897600    -1.23600
O45         O  0.61660040  0.35473387  0.96334172    -0.85900
O46         O  0.66291652  0.35628627  0.01615341    -0.82900
C47         C  0.67065560  0.38989634  0.01711347     0.97600
O48         O  0.64761953  0.41249186  0.02824451    -0.83000
O49         O  0.57566131  0.44164857  0.03943035    -0.85600
C50         C  0.56039612  0.44749217  0.01152218     1.02100
O51         O  0.56169838  0.42326439  0.99004005    -0.78400
O52         O  0.55752727  0.35790103  0.95982329    -0.78600
C53         C  0.58837696  0.35668945  0.94614718     1.02100
O54         O  0.57264639  0.30054362  0.99521412    -0.85900
O55         O  0.61428315  0.30785651  0.05037016    -0.82900
C56         C  0.62795062  0.32128185  0.07605600     0.97600
O57         O  0.63250816  0.35573954  0.07841908    -0.83000
O58         O  0.56284406  0.38236361  0.08444301    -0.85600
C59         C  0.53009836  0.38888410  0.07742574     1.02100
O60         O  0.52155488  0.39494698  0.04746845    -0.78400
O61         O  0.52810084  0.32865653  0.02005656    -0.78500
C62         C  0.54053330  0.30074087  0.00639307     1.02000
Cr63       Cr  0.61485902  0.33240169  0.00749436     1.93700
Cr64       Cr  0.60415922  0.39648574  0.05520534     1.93200
Cr65       Cr  0.54524798  0.37591259  0.00555456     1.39100
O66         O  0.58815545  0.36812293  0.02305083    -1.23600
O67         O  0.42847175  0.62075908  0.04498810    -0.85900
O68         O  0.42679224  0.55643976  0.01331713    -0.82900
C69         C  0.43115962  0.53310804  0.99146881     0.97600
O70         O  0.41695604  0.53898559  0.96311703    -0.83000
O71         O  0.34388929  0.56811672  0.97255217    -0.85600
C72         C  0.32017976  0.59136990  0.98107575     1.02100
O73         O  0.32828690  0.62487145  0.98194997    -0.78400
O74         O  0.36989354  0.62621669  0.03776995    -0.78600
C75         C  0.39664091  0.62333667  0.05676417     1.02100
O76         O  0.46326890  0.65104061  0.98706964    -0.85900
O77         O  0.47081676  0.58686168  0.95816452    -0.82900
C78         C  0.46327866  0.59515930  0.92834856     0.97600
O79         O  0.43055392  0.59915366  0.92010422    -0.83000
O80         O  0.36125298  0.62544316  0.92245385    -0.85600
C81         C  0.36793881  0.65966503  0.92441287     1.02100
O82         O  0.37995704  0.67234760  0.95113540    -0.78400
O83         O  0.41699415  0.68005938  0.00852585    -0.78500
C84         C  0.44902919  0.67975468  0.99717107     1.02000
Cr85       Cr  0.44451269  0.60394993  0.99975398     1.93700
Cr86       Cr  0.38841707  0.58422573  0.94709295     1.93200
Cr87       Cr  0.37554474  0.64830323  0.99388206     1.39100
O88         O  0.40288271  0.61231847  0.98003280    -1.23600
O89         O  0.10620342  0.86469395  0.28172196    -0.85900
O90         O  0.11441493  0.90714766  0.22573804    -0.82900
C91         C  0.14805804  0.91428096  0.22643788     0.97600
O92         O  0.17094002  0.88983006  0.21854666    -0.83000
O93         O  0.19900054  0.81577669  0.21328806    -0.85600
C94         C  0.20191418  0.80166749  0.24217499     1.02100
O95         O  0.17672640  0.80694451  0.26208613    -0.78400
O96         O  0.10939808  0.80583264  0.28835912    -0.78600
C97         C  0.10727239  0.83730309  0.30066499     1.02100
O98         O  0.05465060  0.81915990  0.24765450    -0.85900
O99         O  0.06797424  0.85689045  0.19100895    -0.82900
C100        C  0.08398140  0.86699976  0.16498173     0.97600
O101        O  0.11839277  0.87175999  0.16498356    -0.83000
O102        O  0.14240627  0.80142718  0.16615712    -0.85600
C103        C  0.14558202  0.76887002  0.17608524     1.02100
O104        O  0.15201268  0.76249852  0.20633112    -0.78400
O105        O  0.08453910  0.77125812  0.22979885    -0.78500
C106        C  0.05565836  0.78611474  0.23879010     1.02000
Cr107      Cr  0.08851980  0.86007781  0.23565733     1.93700
Cr108      Cr  0.15609236  0.84452715  0.19315614     1.93200
Cr109      Cr  0.13058600  0.78966554  0.24528671     1.39100
O110        O  0.12481358  0.83145468  0.22440733    -1.23600
O111        O  0.37909369  0.66770529  0.20887538    -0.85900
O112        O  0.31500623  0.66559442  0.24163283    -0.82900
C113        C  0.29215597  0.67303329  0.26318437     0.97600
O114        O  0.29843754  0.66179864  0.29261238    -0.83000
O115        O  0.32629097  0.58847829  0.28725307    -0.85600
C116        C  0.34835805  0.56403341  0.27789546     1.02100
O117        O  0.38203796  0.57078259  0.27609646    -0.78400
O118        O  0.38505868  0.60941851  0.21833875    -0.78600
C119        C  0.38221759  0.63548916  0.19831421     1.02100
O120        O  0.40883156  0.70630933  0.26329714    -0.85900
O121        O  0.34444815  0.71489738  0.29269309    -0.82900
C122        C  0.35432549  0.71047655  0.32252319     0.97600
O123        O  0.36008601  0.67865785  0.33349577    -0.83000
O124        O  0.38401217  0.60719746  0.33483391    -0.85600
C125        C  0.41832774  0.61118349  0.33162167     1.02100
O126        O  0.43126294  0.62258461  0.30466846    -0.78400
O127        O  0.43850975  0.65815473  0.24598870    -0.78500
C128        C  0.43765682  0.69157937  0.25382409     1.02000
Cr129      Cr  0.36201941  0.68583168  0.25295957     1.93700
Cr130      Cr  0.34360852  0.63418131  0.30970772     1.93200
Cr131      Cr  0.40666705  0.61717920  0.26226834     1.39100
O132        O  0.37122986  0.64579810  0.27528460    -1.23600
O133        O  0.92932221  0.11728719  0.54712612    -0.85900
O134        O  0.93002295  0.05417593  0.51304568    -0.82900
C135        C  0.93728595  0.03249878  0.49039336     0.97600
O136        O  0.92209886  0.03822177  0.46256453    -0.83000
O137        O  0.84812754  0.06596623  0.47397233    -0.85600
C138        C  0.82402458  0.08910921  0.48203006     1.02100
O139        O  0.83162060  0.12276519  0.48213573    -0.78400
O140        O  0.87119777  0.12469788  0.53839874    -0.78600
C141        C  0.89716800  0.12067999  0.55804855     1.02100
O142        O  0.96590512  0.15058205  0.49145938    -0.85900
O143        O  0.97429776  0.08792086  0.45969913    -0.82900
C144        C  0.96669923  0.09570255  0.42973808     0.97600
O145        O  0.93398971  0.09944252  0.42101941    -0.83000
O146        O  0.86343828  0.12350261  0.42446585    -0.85600
C147        C  0.86841829  0.15795331  0.42636227     1.02100
O148        O  0.88283926  0.17131787  0.45179873    -0.78400
O149        O  0.91872845  0.17908193  0.51104698    -0.78500
C150        C  0.95188076  0.17892145  0.50279420     1.02000
Cr151      Cr  0.94713120  0.10267513  0.50169945     1.93700
Cr152      Cr  0.89213868  0.08311059  0.44809949     1.93200
Cr153      Cr  0.87812149  0.14700579  0.49478727     1.39100
O154        O  0.90604153  0.11125577  0.48128723    -1.23600
O155        O  0.12211782  0.85093464  0.46025419    -0.85900
O156        O  0.16597488  0.85123574  0.51452874    -0.82900
C157        C  0.17641810  0.88416560  0.51404788     0.97600
O158        O  0.15559715  0.90887750  0.52533418    -0.83000
O159        O  0.08584055  0.94433830  0.53689379    -0.85600
C160        C  0.07206499  0.95143564  0.50868871     1.02100
O161        O  0.07603301  0.92809990  0.48674205    -0.78400
O162        O  0.06491585  0.86502477  0.45425747    -0.78600
C163        C  0.09559301  0.85796453  0.44197690     1.02100
O164        O  0.07177659  0.80329762  0.49260188    -0.85900
O165        O  0.11252039  0.80770563  0.54882085    -0.82900
C166        C  0.12880388  0.81967684  0.57384254     0.97600
O167        O  0.13586444  0.85375700  0.57577204    -0.95800
O168        O  0.06691915  0.88545517  0.57999961    -0.85600
C169        C  0.03498071  0.89425659  0.57148700     1.02100
O170        O  0.02855503  0.90234153  0.54143098    -0.78400
O171        O  0.02782591  0.83800603  0.51134065    -0.78500
C172        C  0.03910202  0.80782715  0.50135980     1.02000
Cr173      Cr  0.11642152  0.83108896  0.50521356     1.93700
Cr174      Cr  0.11050899  0.89653348  0.55205636     1.93200
Cr175      Cr  0.05230640  0.88289409  0.49968293     1.39100
O176        O  0.09282228  0.86963520  0.51933424    -1.23600
O177        O  0.12510924  0.31573220  0.70803939    -0.85900
O178        O  0.18694709  0.31868133  0.74418632    -0.82900
C179        C  0.20783526  0.31026969  0.76710139     0.97600
O180        O  0.19949172  0.32132076  0.79597760    -0.83000
O181        O  0.16881719  0.39396374  0.78816743    -0.85600
C182        C  0.14560126  0.41756606  0.77911348     1.02100
O183        O  0.11230630  0.40899085  0.77718893    -0.78400
O184        O  0.11288937  0.37269156  0.71876389    -0.78600
C185        C  0.11950592  0.34799716  0.69824311     1.02100
O186        O  0.09375484  0.27269875  0.75911669    -0.85900
O187        O  0.15498574  0.26672238  0.79262235    -0.82900
C188        C  0.14358151  0.27044416  0.82215646     0.97600
O189        O  0.13647192  0.30185473  0.83337508    -0.83000
O190        O  0.11008958  0.37255460  0.83415958    -0.85600
C191        C  0.07649284  0.36473829  0.83103507     1.02100
O192        O  0.06509236  0.35329966  0.80370576    -0.78400
O193        O  0.06121167  0.31977658  0.74391279    -0.78500
C194        C  0.06405510  0.28608350  0.75052399     1.02000
Cr195      Cr  0.13986040  0.29622749  0.75223484     1.93700
Cr196      Cr  0.15249359  0.34732871  0.81043781     1.93200
Cr197      Cr  0.09046063  0.36183008  0.76186818     1.39100
O198        O  0.12711576  0.33488435  0.77501222    -1.23600
O199        O  0.38679424  0.11556404  0.78990560    -0.85900
O200        O  0.38639345  0.07863403  0.73210560    -0.82900
C201        C  0.35300507  0.07023038  0.73132075     0.97600
O202        O  0.32965092  0.09408258  0.72311659    -0.83000
O203        O  0.29874130  0.16676393  0.71735754    -0.85600
C204        C  0.29179612  0.17767868  0.74662858     1.02100
O205        O  0.31418301  0.17008745  0.76850903    -0.78400
O206        O  0.37732496  0.17289467  0.80152704    -0.78600
C207        C  0.38066888  0.14011454  0.81066957     1.02100
O208        O  0.43856985  0.16776378  0.76383972    -0.85900
O209        O  0.43314104  0.13411461  0.70416758    -0.82900
C210        C  0.42036461  0.12227329  0.67741524     0.97600
O211        O  0.38632274  0.11611027  0.67504063    -0.83000
O212        O  0.35968057  0.18646985  0.67685194    -0.85600
C213        C  0.35318824  0.21797605  0.68815354     1.02100
O214        O  0.34324097  0.22172337  0.71812786    -0.78400
O215        O  0.40657049  0.21501889  0.74844045    -0.78500
C216        C  0.43632949  0.20124499  0.75633614     1.02000
Cr217      Cr  0.40872432  0.12596373  0.74667048     1.93700
Cr218      Cr  0.34490263  0.14096771  0.70043818     1.93200
Cr219      Cr  0.36069495  0.19222466  0.75781313     1.39100
O220        O  0.37195649  0.15330926  0.73465445    -1.23600
O221        O  0.86742216  0.62718909  0.46473612    -0.85900
O222        O  0.82947783  0.62391577  0.52311836    -0.82900
C223        C  0.82442563  0.58992416  0.52327108     0.97600
O224        O  0.85000440  0.56875468  0.53153168    -0.83000
O225        O  0.92417843  0.54455629  0.53751957    -0.85600
C226        C  0.93794713  0.53914969  0.50887440     1.02100
O227        O  0.93272998  0.56237444  0.48680276    -0.78400
O228        O  0.92588522  0.62692694  0.45504463    -0.78600
C229        C  0.89345364  0.62603405  0.44456988     1.02100
O230        O  0.91125633  0.68512560  0.49087934    -0.85900
O231        O  0.87841392  0.67577799  0.55013515    -0.82900
C232        C  0.86894202  0.66221669  0.57743875     0.97600
O233        O  0.86632675  0.62752932  0.58066217    -0.83000
O234        O  0.93747363  0.60456209  0.58001464    -0.85600
C235        C  0.96957075  0.59974755  0.56987911     1.02100
O236        O  0.97583162  0.59595991  0.53910696    -0.78400
O237        O  0.96090682  0.66072154  0.51087239    -0.78500
C238        C  0.94359802  0.68781233  0.50072955     1.02000
Cr239      Cr  0.87381795  0.65043004  0.50814279     1.93700
Cr240      Cr  0.89441542  0.58794602  0.55493429     1.93200
Cr241      Cr  0.94599672  0.61173735  0.49935336     1.39100
O242        O  0.90491778  0.61684061  0.52111846    -1.23600
O243        O  0.07178439  0.36460930  0.54718378    -0.85900
O244        O  0.07121975  0.42738566  0.51228200    -0.82900
C245        C  0.06598231  0.44958667  0.48946027     0.97600
O246        O  0.07889292  0.44202114  0.46100106    -0.83000
O247        O  0.15180201  0.41372672  0.47102126    -0.85600
C248        C  0.17564699  0.39125585  0.48101987     1.02100
O249        O  0.16872582  0.35736907  0.48060207    -0.78400
O250        O  0.12952536  0.35485501  0.53744845    -0.78600
C251        C  0.10397129  0.36035584  0.55738034     1.02100
O252        O  0.03325818  0.33091390  0.49374858    -0.85900
O253        O  0.02543365  0.39360446  0.46094303    -0.82900
C254        C  0.03170422  0.38399594  0.43122076     0.97600
O255        O  0.06405761  0.37996898  0.42130773    -0.83000
O256        O  0.13431376  0.35526004  0.42254967    -0.85600
C257        C  0.12642370  0.32138467  0.42450341     1.02100
O258        O  0.11543357  0.30856643  0.45166981    -0.78400
O259        O  0.08114595  0.30162107  0.51122865    -0.78500
C260        C  0.04774935  0.30224196  0.50405173     1.02000
Cr261      Cr  0.05331533  0.37881758  0.50220294     1.93700
Cr262      Cr  0.10715707  0.39640501  0.44651376     1.93200
Cr263      Cr  0.12182560  0.33313653  0.49408166     1.39100
O264        O  0.09390033  0.36919560  0.48086288    -1.23600
O265        O  0.56418463  0.86056867  0.04533135    -0.85900
O266        O  0.56128656  0.92560066  0.01395331    -0.82900
C267        C  0.55668603  0.94902379  0.99198450     0.97600
O268        O  0.57069471  0.94332968  0.96348831    -0.83000
O269        O  0.64502930  0.91576938  0.97167087    -0.85600
C270        C  0.66916294  0.89295442  0.98060090     1.02100
O271        O  0.66222878  0.85920033  0.97944190    -0.78400
O272        O  0.62266605  0.85528780  0.03635354    -0.78600
C273        C  0.59637414  0.85786862  0.05605514     1.02100
O274        O  0.52819381  0.82920257  0.98922483    -0.85900
O275        O  0.51785264  0.89347240  0.96025862    -0.82900
C276        C  0.52477891  0.88574544  0.93022985     0.97600
O277        O  0.55739425  0.88320297  0.92068955    -0.83000
O278        O  0.62774372  0.85933788  0.92131509    -0.85600
C279        C  0.62086655  0.82517070  0.92238788     1.02100
O280        O  0.61053933  0.81093045  0.94923438    -0.78400
O281        O  0.57617393  0.80103784  0.00840829    -0.78500
C282        C  0.54342679  0.80095166  0.99929605     1.02000
Cr283      Cr  0.54583496  0.87703593  0.00091221     1.93700
Cr284      Cr  0.60009164  0.89905829  0.94681540     1.93200
Cr285      Cr  0.61596896  0.83421205  0.99236292     1.39100
O286        O  0.58722654  0.87004202  0.97994885    -1.23600
O287        O  0.36022107  0.12685500  0.97122015    -0.85900
O288        O  0.32345862  0.12691443  0.02991513    -0.82900
C289        C  0.31528777  0.09348147  0.03051060     0.97600
O290        O  0.33950747  0.07007564  0.03774896    -0.83000
O291        O  0.41345180  0.04061267  0.04436490    -0.85600
C292        C  0.42640135  0.03420299  0.01559296     1.02100
O293        O  0.42057806  0.05698749  0.99338540    -0.78400
O294        O  0.41823700  0.12077463  0.96077343    -0.78600
C295        C  0.38573234  0.12266995  0.95088945     1.02100
O296        O  0.40923420  0.18133614  0.99545112    -0.85900
O297        O  0.37656255  0.17499157  0.05646065    -0.82900
C298        C  0.36475403  0.16188373  0.08328244     0.97600
O299        O  0.35999276  0.12741466  0.08617605    -0.83000
O300        O  0.43031448  0.10069161  0.08574561    -0.85600
C301        C  0.46225975  0.09554051  0.07493673     1.02100
O302        O  0.46731704  0.08920663  0.04437804    -0.78400
O303        O  0.45684296  0.15300628  0.01461459    -0.78500
C304        C  0.44244418  0.18112303  0.00314637     1.02000
Cr305      Cr  0.36943248  0.14993165  0.01423107     1.93700
Cr306      Cr  0.38582249  0.08612347  0.06098012     1.93200
Cr307      Cr  0.43795395  0.10534201  0.00468748     1.39100
O308        O  0.39794804  0.11403692  0.02694747    -1.23600
O309        O  0.88359089  0.60872247  0.28338232    -0.85900
O310        O  0.88072042  0.56870078  0.22641936    -0.82900
C311        C  0.84727199  0.56087872  0.22726393     0.97600
O312        O  0.82387279  0.58439763  0.21843937    -0.83000
O313        O  0.79394181  0.65775612  0.20876633    -0.85600
C314        C  0.78810600  0.67175485  0.23717343     1.02100
O315        O  0.81093949  0.66582933  0.25908323    -0.78400
O316        O  0.87479770  0.66712305  0.29146939    -0.78600
C317        C  0.87912780  0.63513319  0.30270960     1.02100
O318        O  0.93550505  0.65754893  0.25375326    -0.85900
O319        O  0.92725102  0.62168256  0.19572541    -0.82900
C320        C  0.91343538  0.61105621  0.16901981     0.97600
O321        O  0.87978949  0.60260003  0.16805629    -0.83000
O322        O  0.85376504  0.67216022  0.16606492    -0.85600
C323        C  0.84867767  0.70470222  0.17492091     1.02100
O324        O  0.84165288  0.71144859  0.20521085    -0.78400
O325        O  0.90508195  0.70430672  0.23508384    -0.78500
C326        C  0.93433554  0.69036097  0.24411740     1.02000
Cr327      Cr  0.90410123  0.61596523  0.23884816     1.93700
Cr328      Cr  0.83922126  0.62932211  0.19290323     1.93200
Cr329      Cr  0.85837868  0.68435012  0.24656813     1.39100
O330        O  0.86749087  0.64333786  0.22595472    -1.23600
O331        O  0.61471635  0.81108023  0.20805226    -0.85900
O332        O  0.68152441  0.81048368  0.23561294    -0.82900
C333        C  0.70599312  0.80563986  0.25636710     0.97600
O334        O  0.70192681  0.81985046  0.28501218    -0.83000
O335        O  0.67341353  0.89307444  0.27800671    -0.85600
C336        C  0.65036194  0.91721528  0.27009469     1.02100
O337        O  0.61671592  0.91026796  0.27207339    -0.78400
O338        O  0.60907046  0.86970249  0.21639541    -0.78600
C339        C  0.61121302  0.84320141  0.19697143     1.02100
O340        O  0.58819388  0.77535080  0.26678732    -0.85900
O341        O  0.65442350  0.76665357  0.29120657    -0.82900
C342        C  0.65046238  0.77319081  0.32186983     0.97600
O343        O  0.64542085  0.80551409  0.33163382    -0.83000
O344        O  0.62012858  0.87681017  0.33116069    -0.85600
C345        C  0.58567639  0.87221834  0.33089543     1.02100
O346        O  0.57082828  0.85834997  0.30594956    -0.78400
O347        O  0.55811137  0.82216545  0.24834272    -0.78500
C348        C  0.55910693  0.78898460  0.25692309     1.02000
Cr349      Cr  0.63448100  0.79382882  0.25167490     1.93700
Cr350      Cr  0.65852700  0.84858838  0.30411139     1.93200
Cr351      Cr  0.59129344  0.86320575  0.26165848     1.39100
O352        O  0.62803630  0.83518634  0.27260614    -1.23600
O353        O  0.91549134  0.88107155  0.95618530    -0.85900
O354        O  0.95443804  0.91587132  0.00544501    -0.82900
C355        C  0.93725081  0.94310155  0.01480924     0.97600
O356        O  0.90599338  0.93977253  0.02811774    -0.83000
O357        O  0.83869488  0.90070851  0.04257380    -0.85600
C358        C  0.81933870  0.89056870  0.01784024     1.02100
O359        O  0.83116879  0.86736962  0.99761606    -0.78400
O360        O  0.88026606  0.83277936  0.95955709    -0.78600
C361        C  0.89464170  0.85808336  0.94267930     1.02100
O362        O  0.94072936  0.81550249  0.98187556    -0.85900
O363        O  0.97181748  0.85145309  0.03644563    -0.82900
C364        C  0.97205758  0.87031321  0.06287565     0.97600
O365        O  0.94489166  0.89044411  0.06986478    -0.83000
O366        O  0.88324483  0.85139484  0.08449266    -0.85600
C367        C  0.86222282  0.82471833  0.07968080     1.02100
O368        O  0.84725306  0.82088216  0.05198508    -0.78400
O369        O  0.90357201  0.79055973  0.01658064    -0.78500
C370        C  0.93194349  0.78876390  0.99908520     1.02000
Cr371      Cr  0.94206463  0.86583807  0.99683547     1.93700
Cr372      Cr  0.89305624  0.89346128  0.05352294     1.93200
Cr373      Cr  0.86828238  0.83057992  0.00753595     1.39100
O374        O  0.90079255  0.86403171  0.01941998    -1.23600
O375        O  0.12417385  0.13760570  0.03424594    -0.85900
O376        O  0.16131326  0.12899347  0.97686782    -0.82900
C377        C  0.16899046  0.09552152  0.98084698     0.97600
O378        O  0.14571122  0.07133651  0.97322766    -0.83000
O379        O  0.07299456  0.04039406  0.96659492    -0.85600
C380        C  0.05978839  0.03562054  0.99545132     1.02100
O381        O  0.06603285  0.05946212  0.01651866    -0.78400
O382        O  0.06725149  0.12535589  0.04599156    -0.78600
C383        C  0.09958421  0.13153260  0.05511890     1.02100
O384        O  0.07332257  0.18620277  0.00353807    -0.85900
O385        O  0.10623949  0.17295826  0.94428936    -0.82900
C386        C  0.11808196  0.15736812  0.91884281     0.97600
O387        O  0.12677494  0.12376385  0.92020033    -0.83000
O388        O  0.05667577  0.09722835  0.92217278    -0.85600
C389        C  0.02467571  0.09193913  0.93263121     1.02100
O390        O  0.01862678  0.08808411  0.96354476    -0.78400
O391        O  0.02604476  0.15297311  0.99125664    -0.78500
C392        C  0.03972469  0.18330259  0.99744292     1.02000
Cr393      Cr  0.11437137  0.15373168  0.98889870     1.93700
Cr394      Cr  0.10046245  0.08491191  0.94804389     1.93200
Cr395      Cr  0.04739777  0.10679371  0.00296810     1.39100
O396        O  0.08717602  0.11536648  0.97995207    -1.23600
O397        O  0.11520260  0.11178784  0.21519120    -0.85900
O398        O  0.11492039  0.07020590  0.27126861    -0.82900
C399        C  0.14844939  0.06293834  0.27181421     0.97600
O400        O  0.17085749  0.08685455  0.28211638    -0.83000
O401        O  0.19878341  0.16077217  0.29255145    -0.85600
C402        C  0.20610109  0.17521918  0.26451137     1.02100
O403        O  0.18375346  0.17153634  0.24167716    -0.78400
O404        O  0.12072326  0.17067377  0.20774058    -0.78600
C405        C  0.11852364  0.13871682  0.19612445     1.02100
O406        O  0.05976900  0.15809123  0.24195081    -0.85900
O407        O  0.06574612  0.12148387  0.30061527    -0.82900
C408        C  0.07844488  0.11041087  0.32775967     0.97600
O409        O  0.11232156  0.10364933  0.33017503    -0.83000
O410        O  0.13706048  0.17444177  0.33337003    -0.85600
C411        C  0.14134154  0.20729691  0.32443174     1.02100
O412        O  0.15025099  0.21447621  0.29469788    -0.78400
O413        O  0.08703877  0.20526890  0.26352732    -0.78500
C414        C  0.05926903  0.19093137  0.25137381     1.02000
Cr415      Cr  0.09143693  0.11730043  0.25839851     1.93700
Cr416      Cr  0.15345959  0.13166682  0.30701347     1.93200
Cr417      Cr  0.13513624  0.18749390  0.25317126     1.39100
O418        O  0.12656965  0.14556156  0.27302912    -1.23600
O419        O  0.37661967  0.31408576  0.30174658    -0.85900
O420        O  0.31366331  0.31343324  0.26785900    -0.82900
C421        C  0.29168357  0.30648540  0.24548511     0.97600
O422        O  0.29852581  0.31912353  0.21665294    -0.83000
O423        O  0.32551239  0.39280654  0.22483394    -0.85600
C424        C  0.34746088  0.41728086  0.23443301     1.02100
O425        O  0.38121910  0.41107866  0.23493285    -0.78400
O426        O  0.38303306  0.37239580  0.29237897    -0.78600
C427        C  0.37929546  0.34639541  0.31238045     1.02100
O428        O  0.40907904  0.27666644  0.24745361    -0.85900
O429        O  0.34666406  0.26677384  0.21633741    -0.82900
C430        C  0.35378055  0.27252863  0.18589720     0.97600
O431        O  0.35966298  0.30474403  0.17574299    -0.83000
O432        O  0.38403320  0.37657650  0.17701099    -0.85600
C433        C  0.41834244  0.37233881  0.17970702     1.02100
O434        O  0.43116307  0.36013609  0.20640859    -0.78400
O435        O  0.43779878  0.32470107  0.26592100    -0.78500
C436        C  0.43734464  0.29127684  0.25818398     1.02000
Cr437      Cr  0.36173801  0.29556018  0.25703802     1.93700
Cr438      Cr  0.34345404  0.34822893  0.20103043     1.93200
Cr439      Cr  0.40585488  0.36504427  0.24884633     1.39100
O440        O  0.37080329  0.33605376  0.23530707    -1.23600
O441        O  0.63562314  0.62652589  0.53272824    -0.85900
O442        O  0.67381008  0.62230100  0.47507283    -0.82900
C443        C  0.67989522  0.58835883  0.47572205     0.97600
O444        O  0.65543258  0.56605153  0.46665936    -0.83000
O445        O  0.58150389  0.53886752  0.45777434    -0.85600
C446        C  0.56833260  0.53284277  0.48645013     1.02100
O447        O  0.57646819  0.55493917  0.50852965    -0.78400
O448        O  0.57773037  0.61816065  0.54239374    -0.78600
C449        C  0.60991377  0.62178515  0.55279523     1.02100
O450        O  0.58826490  0.68055741  0.50474148    -0.85900
O451        O  0.62290950  0.67178617  0.44535705    -0.82900
C452        C  0.63515764  0.65783843  0.41918469     0.97600
O453        O  0.63995239  0.62343656  0.41770345    -0.83000
O454        O  0.56801525  0.59977364  0.41652053    -0.85600
C455        C  0.53583380  0.59439100  0.42665135     1.02100
O456        O  0.52981676  0.58833789  0.45728094    -0.78400
O457        O  0.53909284  0.65118637  0.48933022    -0.78500
C458        C  0.55456442  0.67966007  0.49874946     1.02000
Cr459      Cr  0.62803312  0.64773503  0.48845324     1.93700
Cr460      Cr  0.61113152  0.58366360  0.44218947     1.93200
Cr461      Cr  0.55862601  0.60335950  0.49799051     1.39100
O462        O  0.59890800  0.61217234  0.47589181    -1.23600
O463        O  0.42683597  0.36264258  0.46354406    -0.85900
O464        O  0.42635355  0.42904200  0.49183803    -0.82900
C465        C  0.43309319  0.45306895  0.51263488     0.97600
O466        O  0.41922371  0.44900652  0.54141928    -0.83000
O467        O  0.34623600  0.41842260  0.53607713    -0.85600
C468        C  0.32249098  0.39469360  0.52846569     1.02100
O469        O  0.32997922  0.36106340  0.53086647    -0.78400
O470        O  0.36902527  0.35377321  0.47382363    -0.78600
C471        C  0.39462399  0.35808160  0.45357689     1.02100
O472        O  0.46525694  0.33672401  0.52050410    -0.85900
O473        O  0.47335251  0.40236504  0.54570799    -0.82900
C474        C  0.46751301  0.39731656  0.57642847     0.97600
O475        O  0.43550295  0.39178794  0.58661811    -0.83000
O476        O  0.36579432  0.36523897  0.58902720    -0.85600
C477        C  0.37378861  0.33133278  0.58948084     1.02100
O478        O  0.38379792  0.31606749  0.56326867    -0.78400
O479        O  0.41841979  0.30440460  0.50524677    -0.78500
C480        C  0.45149960  0.30671717  0.51352049     1.02000
Cr481      Cr  0.44501689  0.38237990  0.50666190     1.93700
Cr482      Cr  0.39169705  0.40453985  0.56087036     1.93200
Cr483      Cr  0.37710479  0.33654133  0.51911157     1.39100
O484        O  0.40466200  0.37430829  0.52897108    -1.23600
O485        O  0.88104656  0.81352379  0.78743008    -0.85900
O486        O  0.81586024  0.81626511  0.75767147    -0.82900
C487        C  0.79204469  0.81232131  0.73611314     0.97600
O488        O  0.79781028  0.82680636  0.70762351    -0.83000
O489        O  0.82656639  0.89996325  0.71553748    -0.85600
C490        C  0.84858738  0.92378689  0.72633378     1.02100
O491        O  0.88212498  0.91670894  0.72848333    -0.78400
O492        O  0.88434774  0.87248245  0.78323586    -0.78600
C493        C  0.88213448  0.84435383  0.80101805     1.02100
O494        O  0.90964787  0.78166144  0.72873195    -0.85900
O495        O  0.84409077  0.77345044  0.70243951    -0.82900
C496        C  0.85146932  0.78002217  0.67236084     0.97600
O497        O  0.85763231  0.81249887  0.66323080    -0.83000
O498        O  0.88397572  0.88352132  0.66624754    -0.85600
C499        C  0.91843203  0.88004130  0.66928690     1.02100
O500        O  0.93143283  0.86809985  0.69596958    -0.78400
O501        O  0.93877244  0.82681233  0.75170981    -0.78500
C502        C  0.93815293  0.79431876  0.74094635     1.02000
Cr503      Cr  0.86297567  0.79930534  0.74285722     1.93700
Cr504      Cr  0.84303896  0.85544133  0.69054054     1.93200
Cr505      Cr  0.90653494  0.86915723  0.73870031     1.39100
O506        O  0.87105057  0.84147042  0.72367609    -1.23600
O507        O  0.61100611  0.61301432  0.71456935    -0.85900
O508        O  0.61405144  0.57575023  0.77265847    -0.82900
C509        C  0.64789696  0.56987211  0.77263076     0.97600
O510        O  0.66969103  0.59477912  0.78178525    -0.83000
O511        O  0.69537712  0.66975995  0.79053358    -0.85600
C512        C  0.70224209  0.68318030  0.76205059     1.02100
O513        O  0.68098962  0.67524200  0.73928923    -0.78400
O514        O  0.61931011  0.67107595  0.70377389    -0.78600
C515        C  0.61640539  0.63831681  0.69412721     1.02100
O516        O  0.55563096  0.66023549  0.74039393    -0.85900
O517        O  0.56396266  0.62749159  0.80030010    -0.82900
C518        C  0.57658853  0.61654830  0.82747388     0.97600
O519        O  0.61066676  0.61067051  0.82975812    -0.83000
O520        O  0.63293150  0.68204692  0.82981598    -0.85600
C521        C  0.63618083  0.71456106  0.81983185     1.02100
O522        O  0.64475170  0.72116385  0.78976399    -0.78400
O523        O  0.58356928  0.71019413  0.75604233    -0.78500
C524        C  0.55544254  0.69383033  0.74727939     1.02000
Cr525      Cr  0.58866312  0.62120849  0.75797493     1.93700
Cr526      Cr  0.65082183  0.63934581  0.80529840     1.93200
Cr527      Cr  0.63194507  0.69157377  0.74855843     1.39100
O528        O  0.62345857  0.65096972  0.77071252    -1.23600
O529        O  0.88551262  0.36984984  0.21970941    -0.85900
O530        O  0.88354175  0.40719527  0.27819466    -0.82900
C531        C  0.85002144  0.41459409  0.27747247     0.97600
O532        O  0.82688086  0.39051231  0.28595612    -0.83000
O533        O  0.79704012  0.31703484  0.29302033    -0.85600
C534        C  0.79075993  0.30489334  0.26398744     1.02100
O535        O  0.81369499  0.31137092  0.24208354    -0.78400
O536        O  0.87761670  0.31186852  0.20928320    -0.78600
C537        C  0.88129208  0.34446199  0.19921713     1.02100
O538        O  0.93764627  0.31983780  0.24600428    -0.85900
O539        O  0.93048573  0.35283016  0.30635664    -0.82900
C540        C  0.91725572  0.36367990  0.33338264     0.97600
O541        O  0.88332989  0.37079490  0.33521720    -0.83000
O542        O  0.85684751  0.30032339  0.33483698    -0.85600
C543        C  0.85119767  0.26835678  0.32423702     1.02100
O544        O  0.84396352  0.26351783  0.29380429    -0.78400
O545        O  0.90812050  0.27205313  0.26393831    -0.78500
C546        C  0.93678164  0.28628771  0.25332568     1.02000
Cr547      Cr  0.90677447  0.36054568  0.26358659     1.93700
Cr548      Cr  0.84245268  0.34467801  0.30979116     1.93200
Cr549      Cr  0.86117523  0.29245221  0.25364394     1.39100
O550        O  0.87040926  0.33238029  0.27589721    -1.23600
O551        O  0.61577414  0.17305529  0.29364954    -0.85900
O552        O  0.68058839  0.17324055  0.26148551    -0.82900
C553        C  0.70374683  0.17639233  0.23899384     0.97600
O554        O  0.69654615  0.16324819  0.21044209    -0.83000
O555        O  0.66861806  0.09012693  0.21813693    -0.85600
C556        C  0.64683551  0.06586012  0.22872799     1.02100
O557        O  0.61320837  0.07261379  0.23109142    -0.78400
O558        O  0.61051075  0.11425611  0.28729605    -0.78600
C559        C  0.61375373  0.14143394  0.30596349     1.02100
O560        O  0.58478996  0.20744895  0.23699795    -0.85900
O561        O  0.64953425  0.21691519  0.20825507    -0.82900
C562        C  0.64203352  0.21095369  0.17816993     0.97600
O563        O  0.63575821  0.17871538  0.16861970    -0.83000
O564        O  0.61030812  0.10734120  0.17050787    -0.85600
C565        C  0.57597871  0.11085276  0.17414602     1.02100
O566        O  0.56354148  0.12327136  0.20077538    -0.78400
O567        O  0.55672767  0.16059474  0.25866597    -0.78500
C568        C  0.55696589  0.19372858  0.24983782     1.02000
Cr569      Cr  0.63231813  0.18957246  0.24877551     1.93700
Cr570      Cr  0.65124083  0.13513253  0.19443998     1.93200
Cr571      Cr  0.58864648  0.11959953  0.24318429     1.39100
O572        O  0.62406987  0.14795650  0.22870876    -1.23600
O573        O  0.86559795  0.35927567  0.03755604    -0.85900
O574        O  0.82645185  0.36233834  0.98035004    -0.82900
C575        C  0.81938904  0.39603986  0.97823782     0.97600
O576        O  0.84348166  0.41851623  0.96855859    -0.83000
O577        O  0.91638042  0.44681052  0.96002160    -0.85600
C578        C  0.92792424  0.45339749  0.98901164     1.02100
O579        O  0.91931703  0.43136740  0.01107238    -0.78400
O580        O  0.92330144  0.36882072  0.04633052    -0.78600
C581        C  0.89153210  0.36372952  0.05729148     1.02100
O582        O  0.91383765  0.30626285  0.00875955    -0.85900
O583        O  0.87746170  0.31303818  0.95057187    -0.82900
C584        C  0.86568180  0.32623594  0.92394264     0.97600
O585        O  0.86103871  0.36053295  0.92109408    -0.83000
O586        O  0.93182219  0.38477345  0.92034051    -0.85600
C587        C  0.96386037  0.39054241  0.93029393     1.02100
O588        O  0.96932066  0.40012022  0.96015646    -0.78400
O589        O  0.96246512  0.33716929  0.99337819    -0.78500
C590        C  0.94750631  0.30804882  0.00234168     1.02000
Cr591      Cr  0.87281829  0.33784283  0.99325660     1.93700
Cr592      Cr  0.88838564  0.40115023  0.94509505     1.93200
Cr593      Cr  0.94083852  0.38428391  0.00138790     1.39100
O594        O  0.90100265  0.37363159  0.97952950    -1.23600
O595        O  0.05963982  0.61384910  0.95563881    -0.85900
O596        O  0.07282323  0.55126300  0.98837688    -0.82900
C597        C  0.06552014  0.52803700  0.00968261     0.97600
O598        O  0.07790240  0.53386096  0.03858672    -0.83000
O599        O  0.14792441  0.56925127  0.02898424    -0.85600
C600        C  0.16919885  0.59388234  0.01798657     1.02100
O601        O  0.15901473  0.62695458  0.01745484    -0.78400
O602        O  0.11623295  0.62853735  0.96329179    -0.78600
C603        C  0.09068659  0.62101262  0.94411700     1.02100
O604        O  0.02005469  0.63829282  0.01187924    -0.85900
O605        O  0.02151853  0.57476894  0.04212806    -0.82900
C606        C  0.02669546  0.58537823  0.07167202     0.97600
O607        O  0.05854567  0.59308072  0.08111309    -0.83000
O608        O  0.12691158  0.62379510  0.07887041    -0.85600
C609        C  0.11721484  0.65714704  0.07756107     1.02100
O610        O  0.10407661  0.66957101  0.05132146    -0.78400
O611        O  0.06412186  0.67482426  0.99597822    -0.78500
C612        C  0.03130911  0.66940406  0.00457565     1.02000
Cr613      Cr  0.04625813  0.59479213  0.00059538     1.93700
Cr614      Cr  0.10244444  0.58136381  0.05452154     1.93200
Cr615      Cr  0.10934129  0.64736029  0.00804170     1.39100
O616        O  0.08572804  0.60857123  0.02146369    -1.23600
O617        O  0.56469315  0.12347536  0.45921415    -0.85900
O618        O  0.56935088  0.06058775  0.49307737    -0.82900
C619        C  0.56432226  0.03785527  0.51551783     0.97600
O620        O  0.57853962  0.04459205  0.54358155    -0.83000
O621        O  0.65119232  0.07410245  0.53116546    -0.85600
C622        C  0.67416605  0.09699810  0.51983317     1.02100
O623        O  0.66647141  0.13065978  0.51949765    -0.78400
O624        O  0.62278421  0.13319605  0.46553607    -0.78600
C625        C  0.59610920  0.12737878  0.44711823     1.02100
O626        O  0.53018885  0.15457340  0.51584428    -0.85900
O627        O  0.52511114  0.09177792  0.54756486    -0.82900
C628        C  0.53287374  0.10047611  0.57720494     0.97600
O629        O  0.56559015  0.10612269  0.58508663    -0.83000
O630        O  0.63590288  0.13146083  0.58036278    -0.85600
C631        C  0.63032432  0.16572949  0.57810292     1.02100
O632        O  0.61593694  0.17857695  0.55251034    -0.78400
O633        O  0.57667891  0.18559561  0.49632482    -0.78500
C634        C  0.54395443  0.18362743  0.50568241     1.02000
Cr635      Cr  0.55030396  0.10786399  0.50510232     1.93700
Cr636      Cr  0.60738885  0.09047652  0.55753022     1.93200
Cr637      Cr  0.61864149  0.15440515  0.50961355     1.39100
O638        O  0.59196918  0.11799656  0.52428274    -1.23600
O639        O  0.37597557  0.84896235  0.53476352    -0.85900
O640        O  0.33727957  0.85258218  0.47729796    -0.82900
C641        C  0.32798058  0.88586375  0.47734982     0.97600
O642        O  0.35115827  0.91044837  0.47056859    -0.83000
O643        O  0.42249593  0.94312217  0.46315700    -0.85600
C644        C  0.43581968  0.94897160  0.49168372     1.02100
O645        O  0.43078029  0.92525263  0.51336105    -0.78400
O646        O  0.43344593  0.85999891  0.54430800    -0.78600
C647        C  0.40135242  0.85518560  0.55475873     1.02100
O648        O  0.42745042  0.79959468  0.50483915    -0.85900
O649        O  0.39228178  0.80872964  0.44612846    -0.82900
C650        C  0.38048899  0.82294817  0.41993422     0.97600
O651        O  0.37164641  0.85655895  0.41967263    -0.83000
O652        O  0.44072584  0.88509615  0.41995210    -0.85600
C653        C  0.47262227  0.89200112  0.42952417     1.02100
O654        O  0.47859196  0.89807039  0.46005460    -0.78400
O655        O  0.47323248  0.83304561  0.48838997    -0.78500
C656        C  0.46050864  0.80272954  0.49635685     1.02000
Cr657      Cr  0.38499768  0.83015233  0.48993606     1.93700
Cr658      Cr  0.39677649  0.89722301  0.44588964     1.93200
Cr659      Cr  0.45113857  0.87867799  0.50028330     1.39100
O660        O  0.41111171  0.86845784  0.47858609    -1.23600
O661        O  0.38280054  0.86835941  0.71456363    -0.85900
O662        O  0.38125778  0.91000238  0.77081232    -0.82900
C663        C  0.34814768  0.91909336  0.77124623     0.97600
O664        O  0.32411306  0.89616039  0.78048868    -0.83000
O665        O  0.29247421  0.82313268  0.79000215    -0.85600
C666        C  0.28697531  0.80809816  0.76206906     1.02100
O667        O  0.31017185  0.81316463  0.74006591    -0.78400
O668        O  0.37418205  0.80981976  0.70783315    -0.78600
C669        C  0.37809252  0.84146133  0.69573651     1.02100
O670        O  0.43418572  0.81955236  0.74458728    -0.85900
O671        O  0.42630492  0.85667650  0.80246508    -0.82900
C672        C  0.41295714  0.86832118  0.82915912     0.97600
O673        O  0.37933433  0.87663370  0.83037521    -0.83000
O674        O  0.35152387  0.80748580  0.83262479    -0.85600
C675        C  0.34739446  0.77462262  0.82417664     1.02100
O676        O  0.33927866  0.76731605  0.79433075    -0.78400
O677        O  0.40351802  0.77327934  0.76465437    -0.78500
C678        C  0.43271898  0.78686866  0.75468976     1.02000
Cr679      Cr  0.40343017  0.86189757  0.75916741     1.93700
Cr680      Cr  0.33826094  0.85054111  0.80571137     1.93200
Cr681      Cr  0.35698348  0.79381559  0.75287252     1.39100
O682        O  0.36640296  0.83534452  0.77276575    -1.23600
O683        O  0.11411878  0.67154184  0.79220956    -0.85900
O684        O  0.17961314  0.67028521  0.76214053    -0.82900
C685        C  0.20354656  0.67525798  0.74072505     0.97600
O686        O  0.19881446  0.66066843  0.71253216    -0.83000
O687        O  0.16872136  0.58813245  0.72147299    -0.85600
C688        C  0.14526750  0.56476722  0.73086406     1.02100
O689        O  0.11183314  0.57212247  0.72864224    -0.78400
O690        O  0.10692546  0.61303723  0.78437649    -0.78600
C691        C  0.11084045  0.63956316  0.80362594     1.02100
O692        O  0.08618996  0.70815443  0.73517066    -0.85900
O693        O  0.15178850  0.71537707  0.70747749    -0.82900
C694        C  0.14674985  0.70885850  0.67694020     0.97600
O695        O  0.14182317  0.67623560  0.66759027    -0.83000
O696        O  0.11512917  0.60564245  0.66930821    -0.85600
C697        C  0.08093842  0.61119547  0.66990839     1.02100
O698        O  0.06599082  0.62357355  0.69556344    -0.78400
O699        O  0.05545032  0.66088283  0.75330124    -0.78500
C700        C  0.05702577  0.69411654  0.74483153     1.02000
Cr701      Cr  0.13266600  0.68839615  0.74793949     1.93700
Cr702      Cr  0.15437853  0.63288089  0.69518014     1.93200
Cr703      Cr  0.08769604  0.61940692  0.73947455     1.39100
O704        O  0.12454343  0.64713824  0.72716083    -1.23600
C705        C  0.26134332  0.76012581  0.72553185    -0.20800
C706        C  0.26186253  0.77626488  0.75731544    -0.07400
C707        C  0.24543904  0.75688959  0.78386135     0.13500
C708        C  0.22966439  0.72254079  0.77787616    -0.20900
C709        C  0.22909603  0.70652565  0.74605442    -0.07400
C710        C  0.24605894  0.72561335  0.71963500     0.13500
C711        C  0.24870385  0.71018273  0.68507239    -0.24200
H712        H  0.27410605  0.77423849  0.70493258     0.14700
H713        H  0.21670820  0.70842333  0.79837552     0.14800
C714        C  0.24404178  0.77182529  0.81862106    -0.24200
H715        H  0.26520191  0.72784056  0.66838607     0.05000
H716        H  0.22144614  0.70786820  0.67380897     0.08200
H717        H  0.26187218  0.68301035  0.68593943     0.08200
H718        H  0.23070881  0.79892482  0.81848352     0.08200
H719        H  0.27176647  0.77419972  0.82893046     0.08200
H720        H  0.22833708  0.75380495  0.83562390     0.05000
C721        C  0.36853198  0.82854740  0.60259117    -0.20800
C722        C  0.39375775  0.85423308  0.59071228    -0.07400
C723        C  0.41142295  0.87761241  0.61335584     0.13500
C724        C  0.40425255  0.87376846  0.64732777    -0.20900
C725        C  0.38071829  0.84656671  0.65940564    -0.07400
C726        C  0.36212082  0.82397756  0.63662880     0.13500
C727        C  0.33530271  0.79525318  0.64776442    -0.24200
H728        H  0.35468605  0.81090187  0.58511692     0.14700
H729        H  0.41831610  0.89131590  0.66471846     0.14800
C730        C  0.43738393  0.90700419  0.60200566    -0.24200
H731        H  0.32157156  0.78209777  0.62641553     0.05000
H732        H  0.31406785  0.80785464  0.66354875     0.08200
H733        H  0.34936600  0.77342847  0.66178671     0.08200
H734        H  0.42362480  0.92520943  0.58399632     0.08200
H735        H  0.46173456  0.89469885  0.59034791     0.08200
H736        H  0.44691475  0.92403052  0.62299374     0.05000
C737        C  0.51941899  0.00886150  0.47801720    -0.20800
C738        C  0.53377748  0.01134042  0.51040456    -0.07400
C739        C  0.51369464  0.99535019  0.53669097     0.13500
C740        C  0.48048009  0.97784266  0.52983115    -0.20900
C741        C  0.46606305  0.97562082  0.49744601    -0.07400
C742        C  0.48580422  0.99229917  0.47127765     0.13500
C743        C  0.47193459  0.99346938  0.43612084    -0.24200
H744        H  0.53412868  0.02124063  0.45757280     0.14700
H745        H  0.46588601  0.96511175  0.55014416     0.14800
C746        C  0.52657135  0.99652108  0.57211243    -0.24200
H747        H  0.48986582  0.00989037  0.41962453     0.05000
H748        H  0.44456979  0.00605831  0.43562687     0.08200
H749        H  0.47073023  0.96573883  0.42554768     0.08200
H750        H  0.52727743  0.02499573  0.58108748     0.08200
H751        H  0.55402060  0.98428241  0.57391558     0.08200
H752        H  0.50826306  0.98103779  0.58900269     0.05000
C753        C  0.12238174  0.64900438  0.89649920    -0.20800
C754        C  0.09708115  0.62316805  0.90808913    -0.07400
C755        C  0.07881794  0.60061086  0.88519599     0.13500
C756        C  0.08486854  0.60598898  0.85123965    -0.20900
C757        C  0.10851180  0.63335092  0.83964835    -0.07400
C758        C  0.12835906  0.65444304  0.86258450     0.13500
C759        C  0.15643239  0.68206444  0.85170351    -0.24200
H760        H  0.13692821  0.66580847  0.91408775     0.14700
H761        H  0.07020908  0.58933820  0.83358013     0.14800
C762        C  0.05360130  0.57041028  0.89619305    -0.24200
H763        H  0.17112861  0.69392454  0.87313753     0.05000
H764        H  0.14334488  0.70491163  0.83825262     0.08200
H765        H  0.17677896  0.66875567  0.83542184     0.08200
H766        H  0.02944464  0.58192753  0.90881432     0.08200
H767        H  0.06807984  0.55167148  0.91328324     0.08200
H768        H  0.04370956  0.55409109  0.87488597     0.05000
C769        C  0.98318920  0.46596534  0.02219576    -0.20800
C770        C  0.96109355  0.47586418  0.99494533    -0.07400
C771        C  0.97433302  0.50213447  0.97240035     0.13500
C772        C  0.00930788  0.51654521  0.97704235    -0.20900
C773        C  0.03168173  0.50626282  0.00409247    -0.07400
C774        C  0.01796000  0.48069522  0.02707714     0.13500
C775        C  0.03951931  0.46857994  0.05683291    -0.24200
H776        H  0.97361749  0.44574664  0.03981944     0.14700
H777        H  0.01871965  0.53692806  0.95954375     0.14800
C778        C  0.95180220  0.51568218  0.94375371    -0.24200
H779        H  0.02544174  0.44658091  0.07087638     0.05000
H780        H  0.04343439  0.49165617  0.07416877     0.08200
H781        H  0.06628699  0.45798227  0.04870576     0.08200
H782        H  0.92535654  0.52595466  0.95307868     0.08200
H783        H  0.94715858  0.49347272  0.92566640     0.08200
H784        H  0.96547756  0.53832646  0.93022504     0.05000
C785        C  0.59296931  0.10645728  0.35521067    -0.20800
C786        C  0.61204271  0.13671010  0.34233142    -0.07400
C787        C  0.62733109  0.16243434  0.36442343     0.13500
C788        C  0.62237931  0.15764618  0.39849614    -0.20900
C789        C  0.60176160  0.12864688  0.41113504    -0.07400
C790        C  0.58744285  0.10227647  0.38945429     0.13500
C791        C  0.56722798  0.06932982  0.40228531    -0.24200
H792        H  0.58151379  0.08667855  0.33854815     0.14700
H793        H  0.63370366  0.17751181  0.41550011     0.14800
C794        C  0.64893969  0.19503466  0.35271454    -0.24200
H795        H  0.55917617  0.05073309  0.38192024     0.05000
H796        H  0.54214513  0.07789900  0.41538947     0.08200
H797        H  0.58481803  0.05386554  0.41964344     0.08200
H798        H  0.63112834  0.21438963  0.33928410     0.08200
H799        H  0.67123159  0.18600754  0.33628423     0.08200
H800        H  0.66128714  0.21015984  0.37368370     0.05000
C801        C  0.86106103  0.33022073  0.14221997    -0.20800
C802        C  0.88205891  0.35222613  0.16315410    -0.07400
C803        C  0.90490990  0.37933875  0.14901731     0.13500
C804        C  0.90641029  0.38320485  0.11440514    -0.20900
C805        C  0.88561232  0.36097402  0.09350633    -0.07400
C806        C  0.86244402  0.33421748  0.10764333     0.13500
C807        C  0.84050438  0.30847086  0.08654470    -0.24200
H808        H  0.84372855  0.30934286  0.15302270     0.14700
H809        H  0.92442998  0.40340922  0.10348931     0.14800
C810        C  0.92913354  0.40315049  0.16993047    -0.24200
H811        H  0.82548877  0.28813883  0.10181812     0.05000
H812        H  0.85875213  0.29332855  0.06951995     0.08200
H813        H  0.82018386  0.32396254  0.07197606     0.08200
H814        H  0.94725047  0.38590253  0.18533048     0.08200
H815        H  0.91240187  0.42088110  0.18612066     0.08200
H816        H  0.94656431  0.42125627  0.15447686     0.05000
C817        C  0.76251297  0.24638567  0.28227302    -0.20800
C818        C  0.76539319  0.27371837  0.25780276    -0.07400
C819        C  0.75209583  0.26585870  0.22552790     0.13500
C820        C  0.73530503  0.23205041  0.21918874    -0.20900
C821        C  0.73202540  0.20504739  0.24378439    -0.07400
C822        C  0.74739930  0.21189299  0.27533196     0.13500
C823        C  0.75012726  0.18209073  0.30106058    -0.24200
H824        H  0.77417345  0.25114188  0.30648627     0.14700
H825        H  0.72329175  0.22730053  0.19508836     0.14800
C826        C  0.75462386  0.29325515  0.19760443    -0.24200
H827        H  0.76432342  0.19158159  0.32372803     0.05000
H828        H  0.76577844  0.15894435  0.29066400     0.08200
H829        H  0.72300966  0.17215264  0.30861280     0.08200
H830        H  0.78330326  0.29751966  0.19008718     0.08200
H831        H  0.74256845  0.31953108  0.20552148     0.08200
H832        H  0.73979718  0.28390122  0.17523157     0.05000
C833        C  0.50155627  0.71500031  0.77579759    -0.20800
C834        C  0.52208562  0.71461197  0.74665662    -0.07400
C835        C  0.51446924  0.73906110  0.72061669     0.13500
C836        C  0.48543166  0.76322857  0.72411945    -0.20900
C837        C  0.46446652  0.76329583  0.75317822    -0.07400
C838        C  0.47271143  0.73915591  0.77952703     0.13500
C839        C  0.45237394  0.73974806  0.81211664    -0.24200
H840        H  0.50899453  0.69717151  0.79614638     0.14700
H841        H  0.47877191  0.78174496  0.70403857     0.14800
C842        C  0.53710031  0.73970333  0.68943547    -0.24200
H843        H  0.46482364  0.72126651  0.83073285     0.05000
H844        H  0.42391995  0.73065121  0.80859207     0.08200
H845        H  0.45269552  0.76772771  0.82249259     0.08200
H846        H  0.53613986  0.71253409  0.67740962     0.08200
H847        H  0.56569380  0.74647727  0.69553778     0.08200
H848        H  0.52711155  0.76030504  0.67141576     0.05000
C849        C  0.96330378  0.73252440  0.73505439    -0.20800
C850        C  0.96921314  0.76925717  0.74404750    -0.07400
C851        C  0.00380777  0.78009329  0.75545725     0.13500
C852        C  0.03132660  0.75403636  0.75715587    -0.20900
C853        C  0.02542602  0.71786816  0.74714155    -0.07400
C854        C  0.99098786  0.70680300  0.73618349     0.13500
C855        C  0.98361495  0.66864802  0.72398503    -0.24200
H856        H  0.93692872  0.72367414  0.72640132     0.14700
H857        H  0.05807084  0.76216981  0.76553026     0.14800
C858        C  0.01260967  0.81884432  0.76493582    -0.24200
H859        H  0.95530868  0.66540458  0.71504440     0.05000
H860        H  0.98773027  0.64873659  0.74439001     0.08200
H861        H  0.00207948  0.66220411  0.70301524     0.08200
H862        H  0.99558755  0.82726581  0.78632154     0.08200
H863        H  0.00783441  0.83725773  0.74348200     0.08200
H864        H  0.04144901  0.82205454  0.77236589     0.05000
C865        C  0.76301955  0.76743352  0.77490608    -0.20800
C866        C  0.76446176  0.78267436  0.74258202    -0.07400
C867        C  0.74588688  0.76405648  0.71705822     0.13500
C868        C  0.72793094  0.73095259  0.72422282    -0.20900
C869        C  0.72724469  0.71522510  0.75633175    -0.07400
C870        C  0.74513360  0.73423544  0.78206483     0.13500
C871        C  0.74594224  0.71993582  0.81714540    -0.24200
H872        H  0.77710966  0.78110611  0.79490321     0.14700
H873        H  0.71388193  0.71733491  0.70417647     0.14800
C874        C  0.74510012  0.77824779  0.68197471    -0.24200
H875        H  0.76269965  0.73740614  0.83356849     0.05000
H876        H  0.75778453  0.69213507  0.81751111     0.08200
H877        H  0.71809617  0.71928855  0.82767741     0.08200
H878        H  0.77281643  0.77796458  0.67128221     0.08200
H879        H  0.73409055  0.80638795  0.68160729     0.08200
H880        H  0.72770905  0.76121677  0.66572167     0.05000
C881        C  0.53200741  0.24464784  0.52513938    -0.20800
C882        C  0.52125105  0.21546281  0.50553010    -0.07400
C883        C  0.48715801  0.21513097  0.48983993     0.13500
C884        C  0.46457690  0.24517403  0.49347245    -0.20900
C885        C  0.47524710  0.27491492  0.51284575    -0.07400
C886        C  0.50922005  0.27437855  0.52957752     0.13500
C887        C  0.52183387  0.30422622  0.55258182    -0.24200
H888        H  0.55791390  0.24356028  0.53783415     0.14700
H889        H  0.43870244  0.24556516  0.48075150     0.14800
C890        C  0.47483157  0.18348988  0.46883388    -0.24200
H891        H  0.54730843  0.29689199  0.56565935     0.05000
H892        H  0.50088503  0.30957180  0.57178121     0.08200
H893        H  0.52763289  0.32933167  0.53813994     0.08200
H894        H  0.47160149  0.15865442  0.48434980     0.08200
H895        H  0.49507443  0.17829562  0.44895742     0.08200
H896        H  0.44825693  0.18894522  0.45690034     0.05000
C897        C  0.47789992  0.74285140  0.51924714    -0.20800
C898        C  0.48536866  0.77151388  0.49716554    -0.07400
C899        C  0.51727319  0.77046194  0.47717951     0.13500
C900        C  0.54061697  0.74083701  0.48001139    -0.20900
C901        C  0.53269327  0.71225526  0.50160941    -0.07400
C902        C  0.50127655  0.71304400  0.52166965     0.13500
C903        C  0.49272887  0.68278590  0.54589968    -0.24200
H904        H  0.45388055  0.74387688  0.53481746     0.14700
H905        H  0.56456964  0.73922055  0.46433394     0.14800
C906        C  0.52689702  0.79964760  0.45216409    -0.24200
H907        H  0.46789466  0.68867769  0.56060687     0.05000
H908        H  0.51569359  0.67937812  0.56340253     0.08200
H909        H  0.48813184  0.65683302  0.53249524     0.08200
H910        H  0.53382493  0.82520359  0.46527094     0.08200
H911        H  0.50390263  0.80421142  0.43496579     0.08200
H912        H  0.55094157  0.79221436  0.43694135     0.05000
C913        C  0.59306290  0.60152420  0.60910624    -0.20800
C914        C  0.61646946  0.62213301  0.58891495    -0.07400
C915        C  0.64268644  0.64513544  0.60384847     0.13500
C916        C  0.64265413  0.64900944  0.63843442    -0.20900
C917        C  0.61784344  0.62990807  0.65841705    -0.07400
C918        C  0.59354454  0.60481126  0.64365422     0.13500
C919        C  0.56667640  0.58279539  0.66378399    -0.24200
H920        H  0.57348709  0.58339584  0.59765739     0.14700
H921        H  0.66171094  0.66761802  0.64997968     0.14800
C922        C  0.66963212  0.66700718  0.58371867    -0.24200
H923        H  0.54869153  0.56605222  0.64780758     0.05000
H924        H  0.54919982  0.60127768  0.67857841     0.08200
H925        H  0.58131368  0.56382820  0.68052472     0.08200
H926        H  0.65509092  0.68540841  0.56638845     0.08200
H927        H  0.68757107  0.64840097  0.56955674     0.08200
H928        H  0.68727865  0.68413280  0.59967060     0.05000
C929        C  0.51909512  0.51089639  0.52425426    -0.20800
C930        C  0.53559363  0.50900729  0.49258837    -0.07400
C931        C  0.51668118  0.49022914  0.46732825     0.13500
C932        C  0.48228555  0.47487809  0.47428245    -0.20900
C933        C  0.46568294  0.47700677  0.50596477    -0.07400
C934        C  0.48477899  0.49563278  0.53122913     0.13500
C935        C  0.46966652  0.49978668  0.56580475    -0.24200
H936        H  0.53289257  0.52527862  0.54399738     0.14700
H937        H  0.46854177  0.46025956  0.45465084     0.14800
C938        C  0.53229450  0.48590558  0.43298839    -0.24200
H939        H  0.48733627  0.51707211  0.58158205     0.05000
H940        H  0.46754274  0.47288186  0.57818268     0.08200
H941        H  0.44256602  0.51287605  0.56473099     0.08200
H942        H  0.55947288  0.47299096  0.43445921     0.08200
H943        H  0.53445640  0.51286065  0.42067551     0.08200
H944        H  0.51489023  0.46844968  0.41711979     0.05000
C945        C  0.46260888  0.23016619  0.26482111    -0.20800
C946        C  0.46911459  0.26784900  0.26177305    -0.07400
C947        C  0.50484137  0.28093155  0.25811362     0.13500
C948        C  0.53293338  0.25569901  0.25615103    -0.20900
C949        C  0.52608393  0.21788637  0.25618038    -0.07400
C950        C  0.49043544  0.20489747  0.26124459     0.13500
C951        C  0.48087987  0.16489399  0.26115997    -0.24200
H952        H  0.43510025  0.22023191  0.26837370     0.14700
H953        H  0.56047280  0.26577591  0.25356875     0.14800
C954        C  0.51357950  0.32095217  0.25444969    -0.24200
H955        H  0.45120669  0.16025536  0.26395069     0.05000
H956        H  0.49446601  0.15079542  0.28208234     0.08200
H957        H  0.48935320  0.15266511  0.23726021     0.08200
H958        H  0.50523562  0.33577636  0.27716240     0.08200
H959        H  0.49927057  0.33233377  0.23256888     0.08200
H960        H  0.54310173  0.32577725  0.25072380     0.05000
C961        C  0.40449584  0.38261175  0.39740971    -0.20800
C962        C  0.38735251  0.35685837  0.41784917    -0.07400
C963        C  0.36544118  0.32939885  0.40369432     0.13500
C964        C  0.36198141  0.32792579  0.36918855    -0.20900
C965        C  0.38008900  0.35292594  0.34849094    -0.07400
C966        C  0.40122199  0.38111557  0.36286066     0.13500
C967        C  0.42199555  0.40857751  0.34225633    -0.24200
H968        H  0.42115984  0.40364488  0.40860672     0.14700
H969        H  0.34580393  0.30639364  0.35822287     0.14800
C970        C  0.34744294  0.30028531  0.42457526    -0.24200
H971        H  0.43819099  0.42742105  0.35789091     0.05000
H972        H  0.40287481  0.42545010  0.32760213     0.08200
H973        H  0.44110503  0.39430357  0.32540090     0.08200
H974        H  0.32701906  0.31271379  0.44132210     0.08200
H975        H  0.36819357  0.28573280  0.43948460     0.08200
H976        H  0.33315273  0.27980635  0.40910643     0.05000
C977        C  0.03290979  0.25170403  0.24452049    -0.20800
C978        C  0.02711190  0.21392869  0.24736622    -0.07400
C979        C  0.99145238  0.20006146  0.24909345     0.13500
C980        C  0.96262804  0.22463000  0.24935878    -0.20900
C981        C  0.96852065  0.26261243  0.24873897    -0.07400
C982        C  0.00420024  0.27633635  0.24553784     0.13500
C983        C  0.01276340  0.31658731  0.24452340    -0.24200
H984        H  0.06037226  0.26219879  0.24253579     0.14700
H985        H  0.93524490  0.21392089  0.25105311     0.14800
C986        C  0.98341210  0.15984869  0.25231188    -0.24200
H987        H  0.04242190  0.32186776  0.24291374     0.05000
H988        H  0.00266392  0.32987620  0.26745891     0.08200
H989        H  0.00009207  0.32926906  0.22238761     0.08200
H990        H  0.99677296  0.14872284  0.27479383     0.08200
H991        H  0.99329692  0.14526156  0.22998801     0.08200
H992        H  0.95383750  0.15436120  0.25464635     0.05000
C993        C  0.23795836  0.22944742  0.28716288    -0.20800
C994        C  0.23330603  0.20513208  0.26065071    -0.07400
C995        C  0.24718481  0.21518736  0.22904539     0.13500
C996        C  0.26315488  0.24971770  0.22443401    -0.20900
C997        C  0.26718307  0.27443594  0.25072301    -0.07400
C998        C  0.25501575  0.26357616  0.28280988     0.13500
C999        C  0.25935373  0.28786464  0.31269875    -0.24200
H1000       H  0.22697645  0.22230905  0.31127689     0.14700
H1001       H  0.27386817  0.25681852  0.20021483     0.14800
C1002       C  0.24621760  0.18925839  0.20007827    -0.24200
H1003       H  0.24496646  0.27670700  0.33476312     0.05000
H1004       H  0.24805515  0.31525839  0.30731169     0.08200
H1005       H  0.28840003  0.29031685  0.31950906     0.08200
H1006       H  0.21799937  0.18505002  0.19141523     0.08200
H1007       H  0.25820263  0.16271737  0.20746966     0.08200
H1008       H  0.26210461  0.19986384  0.17864101     0.05000
C1009       C  0.02478349  0.24415313  0.01962097    -0.20800
C1010       C  0.01547166  0.21504616  0.99882133    -0.07400
C1011       C  0.98237257  0.21619627  0.98076083     0.13500
C1012       C  0.95994145  0.24649052  0.98382557    -0.20900
C1013       C  0.96968713  0.27550482  0.00409411    -0.07400
C1014       C  0.00208435  0.27446183  0.02258082     0.13500
C1015       C  0.01218213  0.30476165  0.04601506    -0.24200
H1016       H  0.04961569  0.24299013  0.03392186     0.14700
H1017       H  0.93505066  0.24808451  0.96956834     0.14800
C1018       C  0.97031275  0.18619849  0.95779301    -0.24200
H1019       H  0.03753272  0.29855704  0.05973089     0.05000
H1020       H  0.99007037  0.30867989  0.06444143     0.08200
H1021       H  0.01661597  0.33053041  0.03209680     0.08200
H1022       H  0.96372960  0.16158129  0.97263303     0.08200
H1023       H  0.99191785  0.18020173  0.93936485     0.08200
H1024       H  0.94540933  0.19354047  0.94383688     0.05000
C1025       C  0.08896814  0.10742298  0.11116037    -0.20800
C1026       C  0.10814809  0.13173362  0.09075272    -0.07400
C1027       C  0.13311511  0.15655180  0.10503348     0.13500
C1028       C  0.13725716  0.15692429  0.13956922    -0.20900
C1029       C  0.11695992  0.13346340  0.16001360    -0.07400
C1030       C  0.09275476  0.10806925  0.14559146     0.13500
C1031       C  0.06902740  0.08306885  0.16615385    -0.24200
H1032       H  0.07009655  0.08834735  0.10008801     0.14700
H1033       H  0.15564471  0.17639037  0.15079522     0.14800
C1034       C  0.15374100  0.18422756  0.08455098    -0.24200
H1035       H  0.05036108  0.06668242  0.15053857     0.05000
H1036       H  0.05212590  0.09936985  0.18345002     0.08200
H1037       H  0.08608115  0.06365209  0.18033704     0.08200
H1038       H  0.13442252  0.20133584  0.07031102     0.08200
H1039       H  0.17251505  0.17035591  0.06723529     0.08200
H1040       H  0.17036122  0.20261648  0.10025696     0.05000
C1041       C  0.94980438  0.72909361  0.02155982    -0.20800
C1042       C  0.95593354  0.75692937  0.99845699    -0.07400
C1043       C  0.98691979  0.75537557  0.97712237     0.13500
C1044       C  0.01085927  0.72643407  0.98026903    -0.20900
C1045       C  0.00508684  0.69913320  0.00372223    -0.07400
C1046       C  0.97412751  0.70023577  0.02468881     0.13500
C1047       C  0.96739442  0.67249284  0.05163341    -0.24200
H1048       H  0.92650129  0.73045877  0.03798456     0.14700
H1049       H  0.03434298  0.72500036  0.96406241     0.14800
C1050       C  0.99594422  0.78367356  0.95090890    -0.24200
H1051       H  0.94362092  0.67960271  0.06732592     0.05000
H1052       H  0.99152310  0.67142258  0.06786438     0.08200
H1053       H  0.96194592  0.64526880  0.04082164     0.08200
H1054       H  0.00247064  0.81017868  0.96272311     0.08200
H1055       H  0.97290044  0.78662793  0.93342841     0.08200
H1056       H  0.02010374  0.77609860  0.93590985     0.05000
C1057       C  0.87755346  0.88146430  0.85238169    -0.20800
C1058       C  0.88322446  0.84716377  0.83762589    -0.07400
C1059       C  0.89097415  0.81664224  0.85819144     0.13500
C1060       C  0.89505973  0.82193243  0.89217824    -0.20900
C1061       C  0.89058788  0.85627076  0.90658966    -0.07400
C1062       C  0.88045811  0.88618604  0.88679637     0.13500
C1063       C  0.87109835  0.92237693  0.90197647    -0.24200
H1064       H  0.87046570  0.90465078  0.83700419     0.14700
H1065       H  0.90198759  0.79886332  0.90783824     0.14800
C1066       C  0.89541179  0.77831325  0.84517019    -0.24200
H1067       H  0.86214210  0.94239106  0.88298884     0.05000
H1068       H  0.89513724  0.93379289  0.91458742     0.08200
H1069       H  0.84874086  0.91878572  0.92025183     0.08200
H1070       H  0.91835191  0.77721809  0.82728357     0.08200
H1071       H  0.86987154  0.76918204  0.83318168     0.08200
H1072       H  0.90139559  0.75845126  0.86526660     0.05000
C1073       C  0.00325025  0.00593858  0.97511281    -0.20800
C1074       C  0.02786114  0.01109802  0.00127081    -0.07400
C1075       C  0.01744989  0.99919221  0.03347531     0.13500
C1076       C  0.98311582  0.98287134  0.03846474    -0.20900
C1077       C  0.95893759  0.97685875  0.01212344    -0.07400
C1078       C  0.96931711  0.98905684  0.98011227     0.13500
C1079       C  0.94542175  0.98195882  0.95062936    -0.24200
H1080       H  0.01047830  0.01529055  0.95042301     0.14700
H1081       H  0.97659988  0.97133548  0.06258512     0.14800
C1082       C  0.04331192  0.00127129  0.06234233    -0.24200
H1083       H  0.95673214  0.99417160  0.92754356     0.05000
H1084       H  0.91811315  0.99376344  0.95499306     0.08200
H1085       H  0.94298361  0.95217166  0.94676362     0.08200
H1086       H  0.04864838  0.03003382  0.06910592     0.08200
H1087       H  0.06923512  0.98766823  0.05576083     0.08200
H1088       H  0.03213820  0.98745900  0.08473166     0.05000
C1089       C  0.66199540  0.98243662  0.28260240    -0.20800
C1090       C  0.66132866  0.95444150  0.25903406    -0.07400
C1091       C  0.66303430  0.96397776  0.22494518     0.13500
C1092       C  0.66136650  0.00100917  0.21537004    -0.20900
C1093       C  0.65946198  0.02893569  0.23904489    -0.07400
C1094       C  0.66196655  0.01940843  0.27304628     0.13500
C1095       C  0.66354980  0.04768034  0.29995113    -0.24200
H1096       H  0.66092884  0.97545769  0.30873772     0.14700
H1097       H  0.65975466  0.00795620  0.18926578     0.14800
C1098       C  0.66539942  0.93567082  0.19807755    -0.24200
H1099       H  0.68735108  0.04236228  0.31606242     0.05000
H1100       H  0.63848276  0.04631191  0.31526724     0.08200
H1101       H  0.66690005  0.07561215  0.28987485     0.08200
H1102       H  0.64076922  0.93681962  0.18234104     0.08200
H1103       H  0.66832506  0.90769397  0.20814304     0.08200
H1104       H  0.68958671  0.94122922  0.18233618     0.05000
C1105       C  0.52566678  0.89545062  0.34802943    -0.20800
C1106       C  0.56052265  0.88429235  0.35791995    -0.07400
C1107       C  0.56754768  0.88066689  0.39220216     0.13500
C1108       C  0.53896064  0.88590626  0.41523441    -0.20900
C1109       C  0.50310220  0.89302959  0.40481714    -0.07400
C1110       C  0.49695468  0.89937977  0.37060018     0.13500
C1111       C  0.46030176  0.91022736  0.35716633    -0.24200
H1112       H  0.52027554  0.89949529  0.32183948     0.14700
H1113       H  0.54435116  0.88256342  0.44145490     0.14800
C1114       C  0.60429810  0.86924026  0.40445224    -0.24200
H1115       H  0.46159313  0.91717008  0.33035679     0.05000
H1116       H  0.45013216  0.93462052  0.37046544     0.08200
H1117       H  0.44073914  0.88734233  0.35980455     0.08200
H1118       H  0.62502509  0.88958586  0.39668631     0.08200
H1119       H  0.61122212  0.84221618  0.39398333     0.08200
H1120       H  0.60496491  0.86699380  0.43192070     0.05000
C1121       C  0.63815588  0.70812347  0.33596309    -0.20800
C1122       C  0.65138871  0.74234233  0.34599326    -0.07400
C1123       C  0.66456517  0.74614854  0.37869535     0.13500
C1124       C  0.66113096  0.71684645  0.40103021    -0.20900
C1125       C  0.64526853  0.68341933  0.39178982    -0.07400
C1126       C  0.63503119  0.67862915  0.35822380     0.13500
C1127       C  0.61911662  0.64387138  0.34489214    -0.24200
H1128       H  0.62878501  0.70463890  0.31068304     0.14700
H1129       H  0.66991673  0.72049273  0.42646550     0.14800
C1130       C  0.68279797  0.78067762  0.39022683    -0.24200
H1131       H  0.59105696  0.64904469  0.33608402     0.05000
H1132       H  0.61821752  0.62157821  0.36321056     0.08200
H1133       H  0.63578726  0.63432618  0.32365449     0.08200
H1134       H  0.66311647  0.80342484  0.39071397     0.08200
H1135       H  0.70571527  0.78759020  0.37336490     0.08200
H1136       H  0.69386120  0.77775598  0.41568259     0.05000
C1137       C  0.83687676  0.45778855  0.23138670    -0.20800
C1138       C  0.83935929  0.45165063  0.26575907    -0.07400
C1139       C  0.83974721  0.48209424  0.28715072     0.13500
C1140       C  0.83795023  0.51765522  0.27384039    -0.20900
C1141       C  0.83727063  0.52383083  0.23943836    -0.07400
C1142       C  0.83657593  0.49343305  0.21799738     0.13500
C1143       C  0.83794216  0.49864086  0.18096696    -0.24200
H1144       H  0.83788305  0.43460990  0.21480923     0.14700
H1145       H  0.84002163  0.54087489  0.29029909     0.14800
C1146       C  0.84488135  0.47718067  0.32383881    -0.24200
H1147       H  0.83757478  0.47216980  0.16767057     0.05000
H1148       H  0.86321721  0.51334011  0.17388349     0.08200
H1149       H  0.81412816  0.51478998  0.17281286     0.08200
H1150       H  0.87143054  0.46405458  0.32823550     0.08200
H1151       H  0.82289390  0.45971229  0.33411889     0.08200
H1152       H  0.84465900  0.50362422  0.33718333     0.05000
C1153       C  0.93546364  0.57778597  0.11846422    -0.20800
C1154       C  0.93839956  0.60754725  0.14008819    -0.07400
C1155       C  0.96887925  0.63107850  0.13687768     0.13500
C1156       C  0.99766052  0.62134963  0.11602556    -0.20900
C1157       C  0.99548257  0.59122265  0.09483290    -0.07400
C1158       C  0.96323173  0.56984328  0.09528703     0.13500
C1159       C  0.95865457  0.53750219  0.07290544    -0.24200
H1160       H  0.91207228  0.55991109  0.12054090     0.14700
H1161       H  0.02138441  0.63892515  0.11496718     0.14800
C1162       C  0.97153880  0.66754094  0.15406148    -0.24200
H1163       H  0.93243193  0.52324458  0.07733391     0.05000
H1164       H  0.98078476  0.51784053  0.07770559     0.08200
H1165       H  0.95920109  0.54629052  0.04655902     0.08200
H1166       H  0.94576345  0.67597024  0.16598308     0.08200
H1167       H  0.97810890  0.68903894  0.13549792     0.08200
H1168       H  0.99344177  0.66678832  0.17289855     0.05000
C1169       C  0.85907255  0.75914456  0.09370808    -0.20800
C1170       C  0.85701918  0.79527647  0.10490759    -0.07400
C1171       C  0.85089120  0.80156134  0.13897396     0.13500
C1172       C  0.84750281  0.77160598  0.16090901    -0.20900
C1173       C  0.85067990  0.73521390  0.14990265    -0.07400
C1174       C  0.85662876  0.72919870  0.11543529     0.13500
C1175       C  0.86106086  0.69161808  0.10079461    -0.24200
H1176       H  0.86379029  0.75426640  0.06754246     0.14700
H1177       H  0.84276185  0.77683336  0.18699942     0.14800
C1178       C  0.84691251  0.83968478  0.15211227    -0.24200
H1179       H  0.86517871  0.69255762  0.07350032     0.05000
H1180       H  0.83632745  0.67504108  0.10558988     0.08200
H1181       H  0.88527576  0.67810412  0.11155748     0.08200
H1182       H  0.82433575  0.85367733  0.13910970     0.08200
H1183       H  0.87248370  0.85516194  0.14814487     0.08200
H1184       H  0.84082599  0.83974285  0.17910636     0.05000
C1185       C  0.75612635  0.72659265  0.21474006    -0.20800
C1186       C  0.76349398  0.70385080  0.24205717    -0.07400
C1187       C  0.75437470  0.71682605  0.27426371     0.13500
C1188       C  0.73864408  0.75148769  0.27806115    -0.20900
C1189       C  0.73104249  0.77410575  0.25082125    -0.07400
C1190       C  0.74026366  0.76133548  0.21860107     0.13500
C1191       C  0.73446946  0.78447683  0.18807034    -0.24200
H1192       H  0.76408412  0.71773657  0.19015176     0.14700
H1193       H  0.73095486  0.76041345  0.30270723     0.14800
C1194       C  0.76061307  0.69430560  0.30511760    -0.24200
H1195       H  0.74664284  0.77184538  0.16565334     0.05000
H1196       H  0.74739697  0.81157880  0.19146379     0.08200
H1197       H  0.70510134  0.78786397  0.18311540     0.08200
H1198       H  0.79003754  0.69229480  0.31041277     0.08200
H1199       H  0.74877411  0.66668196  0.30195660     0.08200
H1200       H  0.74772445  0.70672490  0.32730330     0.05000
C1201       C  0.26796686  0.06509958  0.99356855    -0.20800
C1202       C  0.27664391  0.08408752  0.02286776    -0.07400
C1203       C  0.24825270  0.10190014  0.04010650     0.13500
C1204       C  0.21314199  0.10276828  0.02657357    -0.20900
C1205       C  0.20493068  0.08640048  0.99610272    -0.07400
C1206       C  0.23237640  0.06597768  0.98005926     0.13500
C1207       C  0.22469170  0.04705608  0.94781140    -0.24200
H1208       H  0.28959016  0.05179735  0.97993979     0.14700
H1209       H  0.19207008  0.11764410  0.03940365     0.14800
C1210       C  0.25506458  0.12093866  0.07263780    -0.24200
H1211       H  0.24908014  0.03278660  0.93817666     0.05000
H1212       H  0.21590865  0.06728272  0.92895201     0.08200
H1213       H  0.20282752  0.02653861  0.95150927     0.08200
H1214       H  0.27386443  0.14429790  0.06914649     0.08200
H1215       H  0.26698334  0.10141439  0.09062561     0.08200
H1216       H  0.22959257  0.13175212  0.08360263     0.05000
C1217       C  0.36772513  0.17979681  0.14325265    -0.20800
C1218       C  0.35658403  0.18788376  0.11078122    -0.07400
C1219       C  0.34101984  0.22257613  0.10436654     0.13500
C1220       C  0.34025442  0.24906470  0.12947111    -0.20900
C1221       C  0.35329776  0.24185255  0.16146363    -0.07400
C1222       C  0.36596808  0.20615434  0.16873744     0.13500
C1223       C  0.37918509  0.19599178  0.20282386    -0.24200
H1224       H  0.37922945  0.15323419  0.14840246     0.14700
H1225       H  0.32924918  0.27577549  0.12402867     0.14800
C1226       C  0.32389308  0.23169173  0.07141414    -0.24200
H1227       H  0.38929046  0.16750807  0.20377104     0.05000
H1228       H  0.35663079  0.19825474  0.22100912     0.08200
H1229       H  0.40182133  0.21427241  0.21008898     0.08200
H1230       H  0.30313190  0.21081783  0.06523175     0.08200
H1231       H  0.34458925  0.23288765  0.05150575     0.08200
H1232       H  0.31021408  0.25863366  0.07190220     0.05000
C1233       C  0.55675753  0.10861948  0.11430844    -0.20800
C1234       C  0.54908916  0.10101698  0.14777069    -0.07400
C1235       C  0.51383999  0.08779093  0.15610130     0.13500
C1236       C  0.48683661  0.08570851  0.13164731    -0.20900
C1237       C  0.49363991  0.09558297  0.09860142    -0.07400
C1238       C  0.52962830  0.10600037  0.08962051     0.13500
C1239       C  0.53945461  0.11607848  0.05446865    -0.24200
H1240       H  0.58362833  0.11833778  0.10766950     0.14700
H1241       H  0.45986466  0.07651430  0.13857343     0.14800
C1242       C  0.50424681  0.07500716  0.19068232    -0.24200
H1243       H  0.56826868  0.12476437  0.05221898     0.05000
H1244       H  0.52227190  0.13904834  0.04593586     0.08200
H1245       H  0.53558138  0.09219677  0.03801445     0.08200
H1246       H  0.50352087  0.09823972  0.20809428     0.08200
H1247       H  0.52436562  0.05456816  0.19920734     0.08200
H1248       H  0.47700810  0.06196850  0.19164686     0.05000
C1249       C  0.71625900  0.89298851  0.02491009    -0.20800
C1250       C  0.70617767  0.90372938  0.99264922    -0.07400
C1251       C  0.73369739  0.91625372  0.97091019     0.13500
C1252       C  0.77047005  0.91561421  0.98114550    -0.20900
C1253       C  0.78079324  0.90259521  0.01271570    -0.07400
C1254       C  0.75296397  0.89205126  0.03509664     0.13500
C1255       C  0.76207931  0.87657706  0.06870475    -0.24200
H1256       H  0.69539026  0.88277716  0.04156350     0.14700
H1257       H  0.79156709  0.92292833  0.96351335     0.14800
C1258       C  0.72453029  0.92769229  0.93607182    -0.24200
H1259       H  0.73728509  0.86914260  0.08298327     0.05000
H1260       H  0.77750257  0.89702215  0.08323955     0.08200
H1261       H  0.77873616  0.85160482  0.06584607     0.08200
H1262       H  0.70536044  0.95097955  0.93673600     0.08200
H1263       H  0.71172247  0.90461389  0.92268273     0.08200
H1264       H  0.74908292  0.93630146  0.92200020     0.05000
C1265       C  0.60116883  0.76934701  0.89323944    -0.20800
C1266       C  0.62391213  0.80024689  0.89310272    -0.07400
C1267       C  0.64928027  0.80422468  0.86686998     0.13500
C1268       C  0.65214422  0.77651171  0.84257985    -0.20900
C1269       C  0.63049080  0.74476532  0.84404099    -0.07400
C1270       C  0.60389877  0.74186985  0.86936359     0.13500
C1271       C  0.57764691  0.71017220  0.87140241    -0.24200
H1272       H  0.58113340  0.76624611  0.91274474     0.14700
H1273       H  0.67225006  0.77907043  0.82302859     0.14800
C1274       C  0.67429463  0.83665244  0.86508091    -0.24200
H1275       H  0.55692872  0.71415532  0.89108179     0.05000
H1276       H  0.59225771  0.68464661  0.87754735     0.08200
H1277       H  0.56312077  0.70707708  0.84748000     0.08200
H1278       H  0.69084505  0.83819160  0.88800066     0.08200
H1279       H  0.65815755  0.86198538  0.86236247     0.08200
H1280       H  0.69311463  0.83491266  0.84357309     0.05000
C1281       C  0.58105276  0.87718873  0.11274348    -0.20800
C1282       C  0.60274743  0.85582659  0.09191956    -0.07400
C1283       C  0.62820679  0.83133568  0.10580370     0.13500
C1284       C  0.63041128  0.82814175  0.14027810    -0.20900
C1285       C  0.60857915  0.84932661  0.16109439    -0.07400
C1286       C  0.58386539  0.87458181  0.14724558     0.13500
C1287       C  0.55926166  0.89774290  0.16842164    -0.24200
H1288       H  0.56166435  0.89587334  0.10191119     0.14700
H1289       H  0.64930075  0.80894985  0.15110271     0.14800
C1290       C  0.65219212  0.80744057  0.08471072    -0.24200
H1291       H  0.54043706  0.91436016  0.15316102     0.05000
H1292       H  0.57558881  0.91689809  0.18354205     0.08200
H1293       H  0.54262346  0.88005989  0.18495030     0.08200
H1294       H  0.67114294  0.82454012  0.06987597     0.08200
H1295       H  0.63527349  0.79052468  0.06796539     0.08200
H1296       H  0.66893046  0.78872538  0.10000570     0.05000
C1297       C  0.47037664  0.85076618  0.85652227    -0.20800
C1298       C  0.43840164  0.87165490  0.85799472    -0.07400
C1299       C  0.43342070  0.89501877  0.88553289     0.13500
C1300       C  0.46154767  0.89858667  0.90923100    -0.20900
C1301       C  0.49467624  0.87969107  0.90597205    -0.07400
C1302       C  0.49823403  0.85428609  0.87981683     0.13500
C1303       C  0.53077576  0.82961996  0.87662139    -0.24200
H1304       H  0.47401970  0.83148408  0.83649079     0.14700
H1305       H  0.45795876  0.91681357  0.93001952     0.14800
C1306       C  0.39918130  0.91680464  0.88972166    -0.24200
H1307       H  0.52733371  0.80918920  0.85659144     0.05000
H1308       H  0.53475741  0.81447889  0.90019539     0.08200
H1309       H  0.55541385  0.84577122  0.87052196     0.08200
H1310       H  0.37551812  0.89812743  0.89184615     0.08200
H1311       H  0.39556228  0.93523978  0.86811262     0.08200
H1312       H  0.39992562  0.93376695  0.91244562     0.05000
C1313       C  0.50015374  0.97878585  0.97212222    -0.20800
C1314       C  0.52628869  0.97536583  0.99725975    -0.07400
C1315       C  0.51785276  0.98936406  0.02914398     0.13500
C1316       C  0.48363883  0.00528617  0.03512006    -0.20900
C1317       C  0.45736377  0.00851035  0.01004704    -0.07400
C1318       C  0.46603579  0.99496092  0.97800373     0.13500
C1319       C  0.43908338  0.99648760  0.94992226    -0.24200
H1320       H  0.50583335  0.96733388  0.94794122     0.14700
H1321       H  0.47801888  0.01669501  0.05931975     0.14800
C1322       C  0.54528051  0.98874944  0.05684955    -0.24200
H1323       H  0.44931277  0.98231403  0.92750328     0.05000
H1324       H  0.43379288  0.02505296  0.94243464     0.08200
H1325       H  0.41329332  0.98318828  0.95766994     0.08200
H1326       H  0.57090917  0.00182806  0.04836069     0.08200
H1327       H  0.55079252  0.96038981  0.06490984     0.08200
H1328       H  0.53547785  0.00387944  0.07893815     0.05000
C1329       C  0.15651051  0.27019269  0.34559837    -0.20800
C1330       C  0.13626547  0.23760595  0.34886251    -0.07400
C1331       C  0.11040640  0.23513784  0.37482596     0.13500
C1332       C  0.10760284  0.26352328  0.39788895    -0.20900
C1333       C  0.12937726  0.29513294  0.39610939    -0.07400
C1334       C  0.15333733  0.29897732  0.36879238     0.13500
C1335       C  0.17605586  0.33278580  0.36426990    -0.24200
H1336       H  0.17539786  0.27292395  0.32509818     0.14700
H1337       H  0.08792697  0.26081274  0.41776887     0.14800
C1338       C  0.08450062  0.20332344  0.37795936    -0.24200
H1339       H  0.19342517  0.33114612  0.34179378     0.05000
H1340       H  0.19399023  0.33658892  0.38606453     0.08200
H1341       H  0.15814042  0.35687173  0.36142870     0.08200
H1342       H  0.09953840  0.17800303  0.38393291     0.08200
H1343       H  0.06935737  0.19985127  0.35441122     0.08200
H1344       H  0.06424283  0.20746083  0.39805736     0.05000
C1345       C  0.24148045  0.40390900  0.47067619    -0.20800
C1346       C  0.21225436  0.40317108  0.49308110    -0.07400
C1347       C  0.22000057  0.40666660  0.52742003     0.13500
C1348       C  0.25636496  0.40617318  0.53851709    -0.20900
C1349       C  0.28558254  0.40486589  0.51611193    -0.07400
C1350       C  0.27778931  0.40601236  0.48169321     0.13500
C1351       C  0.30724350  0.40872934  0.45586793    -0.24200
H1352       H  0.23605058  0.40174078  0.44435445     0.14700
H1353       H  0.26186287  0.40582594  0.56490183     0.14800
C1354       C  0.19054057  0.41056431  0.55306193    -0.24200
H1355       H  0.30176067  0.43232775  0.43933185     0.05000
H1356       H  0.30773009  0.38350937  0.44074528     0.08200
H1357       H  0.33437144  0.41327538  0.46690282     0.08200
H1358       H  0.19026310  0.38634917  0.56964273     0.08200
H1359       H  0.16343969  0.41411248  0.54171453     0.08200
H1360       H  0.19580653  0.43524027  0.56819772     0.05000
C1361       C  0.96974723  0.39942530  0.40926161    -0.20800
C1362       C  0.00100776  0.37744795  0.40785119    -0.07400
C1363       C  0.00208056  0.34869830  0.38454240     0.13500
C1364       C  0.97339523  0.34433467  0.36209304    -0.20900
C1365       C  0.94312525  0.36768713  0.36183016    -0.07400
C1366       C  0.94091264  0.39503326  0.38648584     0.13500
C1367       C  0.90928720  0.42070261  0.38800576    -0.24200
H1368       H  0.96836035  0.42086702  0.42762382     0.14700
H1369       H  0.97499118  0.32257128  0.34401307     0.14800
C1370       C  0.03290708  0.32168770  0.38358898    -0.24200
H1371       H  0.91199606  0.44052417  0.40859489     0.05000
H1372       H  0.88371682  0.40518519  0.39190316     0.08200
H1373       H  0.90795085  0.43623560  0.36450329     0.08200
H1374       H  0.03642902  0.30914502  0.40847132     0.08200
H1375       H  0.05840809  0.33543558  0.37579759     0.08200
H1376       H  0.02779062  0.29933657  0.36567241     0.05000
C1377       C  0.78106584  0.56851552  0.48034512    -0.20800
C1378       C  0.78775814  0.57677835  0.51383668    -0.07400
C1379       C  0.75793451  0.58263269  0.53522055     0.13500
C1380       C  0.72243468  0.58177347  0.52248853    -0.20900
C1381       C  0.71580348  0.57647661  0.48856618    -0.07400
C1382       C  0.74544114  0.56879546  0.46737476     0.13500
C1383       C  0.73969391  0.56354819  0.43077343    -0.24200
H1384       H  0.80396778  0.56510520  0.46366901     0.14700
H1385       H  0.69980854  0.58814403  0.53871902     0.14800
C1386       C  0.76375201  0.59221999  0.57112622    -0.24200
H1387       H  0.76564333  0.55809233  0.41760217     0.05000
H1388       H  0.72745392  0.58846148  0.41985765     0.08200
H1389       H  0.72120011  0.54005690  0.42669057     0.08200
H1390       H  0.77913640  0.61819392  0.57304506     0.08200
H1391       H  0.77928150  0.57018195  0.58351573     0.08200
H1392       H  0.73762079  0.59564836  0.58456737     0.05000
C1393       C  0.84339604  0.72183661  0.59416525    -0.20800
C1394       C  0.85981951  0.68891597  0.60414529    -0.07400
C1395       C  0.87202065  0.68578126  0.63720773     0.13500
C1396       C  0.86768833  0.71549772  0.65908405    -0.20900
C1397       C  0.85295619  0.74902245  0.64843908    -0.07400
C1398       C  0.84031435  0.75191319  0.61549248     0.13500
C1399       C  0.82335529  0.78643900  0.60245353    -0.24200
H1400       H  0.83406887  0.72456062  0.56883171     0.14700
H1401       H  0.87750771  0.71311008  0.68428207     0.14800
C1402       C  0.89175034  0.65229866  0.64891037    -0.24200
H1403       H  0.81346394  0.78318765  0.57664517     0.05000
H1404       H  0.84361258  0.80879245  0.60225915     0.08200
H1405       H  0.79987232  0.79420791  0.61816394     0.08200
H1406       H  0.91662234  0.64839965  0.63373354     0.08200
H1407       H  0.87390000  0.62803485  0.64658819     0.08200
H1408       H  0.90007355  0.65461386  0.67526306     0.05000
C1409       C  0.91213838  0.60799436  0.38809972    -0.20800
C1410       C  0.88661152  0.62541123  0.40845827    -0.07400
C1411       C  0.85695572  0.64388267  0.39368518     0.13500
C1412       C  0.85485887  0.64590060  0.35900607    -0.20900
C1413       C  0.88091833  0.62923308  0.33880042    -0.07400
C1414       C  0.90957153  0.60941246  0.35348452     0.13500
C1415       C  0.93855089  0.59123199  0.33291304    -0.24200
H1416       H  0.93466024  0.59361222  0.39938894     0.14700
H1417       H  0.83290302  0.66089146  0.34752057     0.14800
C1418       C  0.82820048  0.66278806  0.41398753    -0.24200
H1419       H  0.95979726  0.57852498  0.34861719     0.05000
H1420       H  0.95196345  0.61163461  0.31655792     0.08200
H1421       H  0.92632097  0.56936168  0.31759875     0.08200
H1422       H  0.84094205  0.68351144  0.43026958     0.08200
H1423       H  0.81315119  0.64250628  0.42926181     0.08200
H1424       H  0.80805812  0.67695202  0.39809132     0.05000
C1425       C  0.03410227  0.61288242  0.58567489    -0.20800
C1426       C  0.99999340  0.59801246  0.59421152    -0.07400
C1427       C  0.99538305  0.58254440  0.62620300     0.13500
C1428       C  0.02371256  0.58480366  0.64928086    -0.20900
C1429       C  0.05669852  0.60222235  0.64167747    -0.07400
C1430       C  0.06232827  0.61564926  0.60917956     0.13500
C1431       C  0.09691140  0.63515233  0.59992347    -0.24200
H1432       H  0.03801463  0.62424552  0.56109375     0.14700
H1433       H  0.01951373  0.57417566  0.67411592     0.14800
C1434       C  0.96082897  0.56332479  0.63640296    -0.24200
H1435       H  0.09675328  0.64432372  0.57365425     0.05000
H1436       H  0.12043163  0.61670099  0.60340348     0.08200
H1437       H  0.10021467  0.65958805  0.61576275     0.08200
H1438       H  0.95438438  0.54148393  0.61833860     0.08200
H1439       H  0.96324764  0.55047310  0.66127123     0.08200
H1440       H  0.93806108  0.58295259  0.63774358     0.05000
C1441       C  0.99213357  0.50686327  0.53026642    -0.20800
C1442       C  0.96840117  0.51297296  0.50364430    -0.07400
C1443       C  0.97904282  0.50093449  0.47158336     0.13500
C1444       C  0.01252397  0.48301422  0.46731639    -0.20900
C1445       C  0.03608100  0.47657603  0.49405304    -0.07400
C1446       C  0.02567568  0.48920474  0.52597975     0.13500
C1447       C  0.04997934  0.48493685  0.55580778    -0.24200
H1448       H  0.98501693  0.51716987  0.55457167     0.14700
H1449       H  0.01966050  0.47268947  0.44302038     0.14800
C1450       C  0.95497101  0.50598728  0.44170565    -0.24200
H1451       H  0.03949575  0.50023109  0.57753999     0.05000
H1452       H  0.07751383  0.49560328  0.54999023     0.08200
H1453       H  0.05167434  0.45591652  0.56336469     0.08200
H1454       H  0.95288797  0.53525156  0.43506572     0.08200
H1455       H  0.92754033  0.49475364  0.44700160     0.08200
H1456       H  0.96589692  0.49174039  0.41957380     0.05000
C1457       C  0.33259821  0.02226526  0.77199981    -0.20800
C1458       C  0.34278333  0.03166383  0.73934130    -0.07400
C1459       C  0.35011807  0.00328192  0.71670802     0.13500
C1460       C  0.34802551  0.96660015  0.72721956    -0.20900
C1461       C  0.33947517  0.95709419  0.76016624    -0.07400
C1462       C  0.33118407  0.98540012  0.78271099     0.13500
C1463       C  0.32325034  0.97681771  0.81852930    -0.24200
H1464       H  0.32801623  0.04391121  0.78975836     0.14700
H1465       H  0.35528477  0.94515473  0.71001566     0.14800
C1466       C  0.36181251  0.01180866  0.68169445    -0.24200
H1467       H  0.31794341  0.00190964  0.83308322     0.05000
H1468       H  0.34678525  0.96260129  0.82977006     0.08200
H1469       H  0.29894095  0.95895695  0.82028778     0.08200
H1470       H  0.38763101  0.02749824  0.68185839     0.08200
H1471       H  0.34055002  0.02820873  0.66919770     0.08200
H1472       H  0.36624714  0.98663776  0.66701270     0.05000
C1473       C  0.48133325  0.10135131  0.65978199    -0.20800
C1474       C  0.44684313  0.11394654  0.65032730    -0.07400
C1475       C  0.44047277  0.12129731  0.61640206     0.13500
C1476       C  0.46856607  0.11548821  0.59301266    -0.20900
C1477       C  0.50342265  0.10374546  0.60273524    -0.07400
C1478       C  0.50962918  0.09657125  0.63680498     0.13500
C1479       C  0.54587621  0.08358288  0.64947141    -0.24200
H1480       H  0.48649262  0.09579026  0.68578585     0.14700
H1481       H  0.46367067  0.12156508  0.56706994     0.14800
C1482       C  0.40497326  0.13720634  0.60504821    -0.24200
H1483       H  0.54493941  0.07702587  0.67636784     0.05000
H1484       H  0.56669383  0.10520117  0.64604293     0.08200
H1485       H  0.55414418  0.05850562  0.63612297     0.08200
H1486       H  0.39997380  0.16341308  0.61798148     0.08200
H1487       H  0.38247953  0.11792128  0.61055839     0.08200
H1488       H  0.40501148  0.14266086  0.57794152     0.05000
C1489       C  0.35370377  0.15021214  0.86571265    -0.20800
C1490       C  0.37850090  0.13100116  0.84601976    -0.07400
C1491       C  0.40196978  0.10522062  0.86074537     0.13500
C1492       C  0.40189194  0.10149008  0.89519465    -0.20900
C1493       C  0.37875050  0.12240794  0.91510280    -0.07400
C1494       C  0.35311930  0.14589347  0.90017203     0.13500
C1495       C  0.32634319  0.16777915  0.92022186    -0.24200
H1496       H  0.33520767  0.16928564  0.85407888     0.14700
H1497       H  0.42102469  0.08305658  0.90682096     0.14800
C1498       C  0.42858135  0.08304961  0.84073840    -0.24200
H1499       H  0.30904841  0.18523134  0.90422292     0.05000
H1500       H  0.34100227  0.18586093  0.93771037     0.08200
H1501       H  0.30808620  0.14910708  0.93423119     0.08200
H1502       H  0.44677894  0.10144825  0.82636057     0.08200
H1503       H  0.41371496  0.06471524  0.82362467     0.08200
H1504       H  0.44585295  0.06562206  0.85677732     0.05000
C1505       C  0.39173002  0.25321775  0.64920022    -0.20800
C1506       C  0.35874041  0.25051060  0.66639295    -0.07400
C1507       C  0.33250194  0.27831110  0.66200003     0.13500
C1508       C  0.33881365  0.30642716  0.63846325    -0.20900
C1509       C  0.37095794  0.30756846  0.61957224    -0.07400
C1510       C  0.39839523  0.28140412  0.62631499     0.13500
C1511       C  0.43510479  0.28299975  0.60955048    -0.24200
H1512       H  0.41238582  0.23274193  0.65344874     0.14700
H1513       H  0.31781269  0.32632507  0.63354326     0.14800
C1514       C  0.29709785  0.27727068  0.68070569    -0.24200
H1515       H  0.45421331  0.26275069  0.62019329     0.05000
H1516       H  0.44722625  0.31049055  0.61289789     0.08200
H1517       H  0.43269424  0.27688760  0.58275770     0.08200
H1518       H  0.30223910  0.27913707  0.70775072     0.08200
H1519       H  0.28259903  0.25142794  0.67528715     0.08200
H1520       H  0.27914576  0.30026999  0.67362727     0.05000
C1521       C  0.17101775  0.46417901  0.73976806    -0.20800
C1522       C  0.15562056  0.45600527  0.77095761    -0.07400
C1523       C  0.14218786  0.48495691  0.79044380     0.13500
C1524       C  0.14220824  0.52070852  0.77760310    -0.20900
C1525       C  0.15515125  0.52863602  0.74551782    -0.07400
C1526       C  0.17083868  0.50015915  0.72681289     0.13500
C1527       C  0.18503362  0.50727768  0.69237576    -0.24200
H1528       H  0.18073749  0.44199486  0.72448141     0.14700
H1529       H  0.13018564  0.54239256  0.79210301     0.14800
C1530       C  0.12655825  0.47789572  0.82447885    -0.24200
H1531       H  0.19588196  0.48209684  0.68082924     0.05000
H1532       H  0.20726259  0.52774000  0.69335637     0.08200
H1533       H  0.16286617  0.51783773  0.67644394     0.08200
H1534       H  0.14733591  0.46464640  0.84031315     0.08200
H1535       H  0.10244211  0.45980889  0.82277190     0.08200
H1536       H  0.11796259  0.50353740  0.83675862     0.05000
C1537       C  0.05366132  0.39840587  0.88130313    -0.20800
C1538       C  0.04935492  0.36991610  0.85832382    -0.07400
C1539       C  0.01749832  0.34794030  0.86037413     0.13500
C1540       C  0.99113335  0.35540867  0.88452478    -0.20900
C1541       C  0.99469761  0.38443537  0.90677150    -0.07400
C1542       C  0.02659361  0.40619181  0.90525902     0.13500
C1543       C  0.03133896  0.43878897  0.92739606    -0.24200
H1544       H  0.07760800  0.41557194  0.87966307     0.14700
H1545       H  0.96703924  0.33838910  0.88584684     0.14800
C1546       C  0.01061193  0.31615366  0.83742543    -0.24200
H1547       H  0.05702456  0.45363448  0.92199611     0.05000
H1548       H  0.03195523  0.43013014  0.95377031     0.08200
H1549       H  0.00853322  0.45795303  0.92339781     0.08200
H1550       H  0.03412533  0.29732435  0.83774081     0.08200
H1551       H  0.00566607  0.32602906  0.81180461     0.08200
H1552       H  0.98621836  0.30020913  0.84489580     0.05000
C1553       C  0.09396887  0.38511804  0.61342148    -0.20800
C1554       C  0.11145292  0.35977018  0.59305179    -0.07400
C1555       C  0.13397880  0.33281702  0.60724189     0.13500
C1556       C  0.13773757  0.33145435  0.64162653    -0.20900
C1557       C  0.11894854  0.35563196  0.66231401    -0.07400
C1558       C  0.09729914  0.38344968  0.64799375     0.13500
C1559       C  0.07613799  0.41031013  0.66861410    -0.24200
H1560       H  0.07690349  0.40572863  0.60221622     0.14700
H1561       H  0.15447754  0.31035407  0.65251219     0.14800
C1562       C  0.15224898  0.30381115  0.58666462    -0.24200
H1563       H  0.06003146  0.42924866  0.65297446     0.05000
H1564       H  0.09503093  0.42709764  0.68361567     0.08200
H1565       H  0.05689289  0.39552502  0.68514019     0.08200
H1566       H  0.17267386  0.31637158  0.56985844     0.08200
H1567       H  0.13164312  0.28887433  0.57189881     0.08200
H1568       H  0.16665889  0.28355196  0.60231790     0.05000
C1569       C  0.10207987  0.23156813  0.85521475    -0.20800
C1570       C  0.13733588  0.23781908  0.84335996    -0.07400
C1571       C  0.16532535  0.21344165  0.85248354     0.13500
C1572       C  0.15781581  0.18484652  0.87504867    -0.20900
C1573       C  0.12298233  0.18027591  0.88871662    -0.07400
C1574       C  0.09449136  0.20315997  0.87763086     0.13500
C1575       C  0.05595895  0.19799965  0.88966959    -0.24200
H1576       H  0.08045540  0.24959582  0.84742215     0.14700
H1577       H  0.17968044  0.16757900  0.88368591     0.14800
C1578       C  0.20347853  0.21889832  0.84007190    -0.24200
H1579       H  0.03688603  0.21670070  0.87684005     0.05000
H1580       H  0.05399105  0.20364297  0.91660631     0.08200
H1581       H  0.04695662  0.16960776  0.88479030     0.08200
H1582       H  0.21337019  0.24618291  0.84767205     0.08200
H1583       H  0.20402159  0.21681131  0.81264196     0.08200
H1584       H  0.22231899  0.19813038  0.85026250     0.05000
C1585       C  0.27649484  0.23322348  0.77928362    -0.20800
C1586       C  0.26715071  0.20924671  0.75312678    -0.07400
C1587       C  0.23870930  0.21933664  0.73177983     0.13500
C1588       C  0.22141753  0.25307972  0.73637920    -0.20900
C1589       C  0.23130650  0.27747270  0.76200822    -0.07400
C1590       C  0.25927116  0.26706635  0.78381734     0.13500
C1591       C  0.27207277  0.29185447  0.81115911    -0.24200
H1592       H  0.29852559  0.22620740  0.79579431     0.14700
H1593       H  0.19925588  0.25998688  0.71998085     0.14800
C1594       C  0.22578751  0.19447863  0.70455261    -0.24200
H1595       H  0.29548797  0.28010210  0.82474502     0.05000
H1596       H  0.25009970  0.29640194  0.82949468     0.08200
H1597       H  0.28074332  0.31842221  0.80046527     0.08200
H1598       H  0.21851293  0.16743286  0.71513611     0.08200
H1599       H  0.24721887  0.19122535  0.68543868     0.08200
H1600       H  0.20141807  0.20551184  0.69191080     0.05000
C1601       C  0.13876852  0.80291290  0.63387943    -0.20800
C1602       C  0.13933898  0.79278453  0.60031378    -0.07400
C1603       C  0.14769831  0.75593300  0.59253777     0.13500
C1604       C  0.15100456  0.72995460  0.61807534    -0.20900
C1605       C  0.14729632  0.73926737  0.65165714    -0.07400
C1606       C  0.14310539  0.77687518  0.65960201     0.13500
C1607       C  0.14245426  0.79003698  0.69495064    -0.24200
H1608       H  0.13358537  0.83114035  0.64007681     0.14700
H1609       H  0.15618104  0.70180529  0.61154920     0.14800
C1610       C  0.15411661  0.74351869  0.55733976    -0.24200
H1611       H  0.13912687  0.82007388  0.69638846     0.05000
H1612       H  0.16847833  0.78310954  0.70727359     0.08200
H1613       H  0.11941760  0.77732830  0.70856390     0.08200
H1614       H  0.17471460  0.76134225  0.54525161     0.08200
H1615       H  0.12847747  0.74405305  0.54303674     0.08200
H1616       H  0.16441140  0.71510106  0.55638828     0.05000
C1617       C  0.26372558  0.87591572  0.46346902    -0.20800
C1618       C  0.28890995  0.89415984  0.48326983    -0.07400
C1619       C  0.27609436  0.91434291  0.51077207     0.13500
C1620       C  0.23868111  0.91304838  0.51932545    -0.20900
C1621       C  0.21386196  0.89205864  0.50086941    -0.07400
C1622       C  0.22664650  0.87501348  0.47144117     0.13500
C1623       C  0.20152991  0.85601840  0.44770245    -0.24200
H1624       H  0.27347169  0.86106601  0.44198986     0.14700
H1625       H  0.22925127  0.92670547  0.54152857     0.14800
C1626       C  0.30211715  0.93555171  0.53198965    -0.24200
H1627       H  0.21606075  0.84606988  0.42532462     0.05000
H1628       H  0.18067136  0.87559693  0.43908870     0.08200
H1629       H  0.18888290  0.83188153  0.45965692     0.08200
H1630       H  0.31600909  0.95660719  0.51666555     0.08200
H1631       H  0.32272051  0.91692490  0.54271480     0.08200
H1632       H  0.28792069  0.94949440  0.55269033     0.05000
C1633       C  0.98872397  0.77391098  0.52594208    -0.20800
C1634       C  0.01324702  0.77804518  0.49951768    -0.07400
C1635       C  0.01128326  0.75506230  0.47160692     0.13500
C1636       C  0.98580326  0.72699727  0.47163934    -0.20900
C1637       C  0.96265737  0.72194502  0.49872464    -0.07400
C1638       C  0.96344088  0.74567562  0.52599486     0.13500
C1639       C  0.93847770  0.74058757  0.55535897    -0.24200
H1640       H  0.99007938  0.79220658  0.54698305     0.14700
H1641       H  0.98482835  0.70801459  0.45108743     0.14800
C1642       C  0.03537987  0.76020662  0.44170315    -0.24200
H1643       H  0.94298819  0.76173393  0.57457810     0.05000
H1644       H  0.94314145  0.71349448  0.56692377     0.08200
H1645       H  0.90984239  0.74252489  0.54708531     0.08200
H1646       H  0.06409009  0.75536447  0.44858446     0.08200
H1647       H  0.03220131  0.78830542  0.43182897     0.08200
H1648       H  0.02845519  0.74086367  0.42154020     0.05000
C1649       C  0.98083530  0.89959113  0.65280556    -0.20800
C1650       C  0.94548222  0.88990141  0.64262437    -0.07400
C1651       C  0.93921886  0.88541648  0.60829190     0.13500
C1652       C  0.96860760  0.88830403  0.58568582    -0.20900
C1653       C  0.00448218  0.89516422  0.59635546    -0.07400
C1654       C  0.01018892  0.90208290  0.63045871     0.13500
C1655       C  0.04705339  0.91228641  0.64376465    -0.24200
H1656       H  0.98594360  0.90405702  0.67893989     0.14700
H1657       H  0.96370414  0.88359799  0.55956097     0.14800
C1658       C  0.90213900  0.87578308  0.59549819    -0.24200
H1659       H  0.04590381  0.91930128  0.67051475     0.05000
H1660       H  0.05777957  0.93642410  0.63019862     0.08200
H1661       H  0.06607229  0.88907023  0.64113894     0.08200
H1662       H  0.88262110  0.89767307  0.60192701     0.08200
H1663       H  0.89311503  0.84966610  0.60675236     0.08200
H1664       H  0.90206700  0.87252839  0.56813016     0.05000
C1665       C  0.86516239  0.17476220  0.36627670    -0.20800
C1666       C  0.85754504  0.18352403  0.39935568    -0.07400
C1667       C  0.84328725  0.21850354  0.40650416     0.13500
C1668       C  0.84034505  0.24454950  0.38104997    -0.20900
C1669       C  0.85124241  0.23712906  0.34832426    -0.07400
C1670       C  0.86295421  0.20104274  0.34071477     0.13500
C1671       C  0.87558680  0.18891195  0.30689274    -0.24200
H1672       H  0.87512129  0.14771268  0.36054071     0.14700
H1673       H  0.83009588  0.27143917  0.38702367     0.14800
C1674       C  0.83044314  0.22856814  0.44086611    -0.24200
H1675       H  0.90372861  0.17829652  0.30873201     0.05000
H1676       H  0.87614946  0.21045646  0.28788578     0.08200
H1677       H  0.85764168  0.16666195  0.29796589     0.08200
H1678       H  0.85366164  0.23033619  0.45817960     0.08200
H1679       H  0.81065931  0.20791830  0.44998303     0.08200
H1680       H  0.81677123  0.25551816  0.44112376     0.05000
C1681       C  0.75990587  0.09271580  0.46651621    -0.20800
C1682       C  0.78551306  0.07925469  0.48888488    -0.07400
C1683       C  0.77336917  0.06677135  0.52030265     0.13500
C1684       C  0.73608751  0.06949483  0.52891292    -0.20900
C1685       C  0.71095412  0.08595565  0.50733912    -0.07400
C1686       C  0.72326021  0.09679325  0.47534215     0.13500
C1687       C  0.69838349  0.11406612  0.45040340    -0.24200
H1688       H  0.76930676  0.10295579  0.44270735     0.14700
H1689       H  0.72715906  0.06142964  0.55349487     0.14800
C1690       C  0.80006868  0.05292041  0.54548484    -0.24200
H1691       H  0.71219932  0.11929125  0.42631795     0.05000
H1692       H  0.68901453  0.14081002  0.45976898     0.08200
H1693       H  0.67522007  0.09548531  0.44552609     0.08200
H1694       H  0.81977734  0.07473772  0.55173418     0.08200
H1695       H  0.81492616  0.02919259  0.53521997     0.08200
H1696       H  0.78633063  0.04418734  0.56875659     0.05000
C1697       C  0.98712112  0.27549473  0.51279778    -0.20800
C1698       C  0.02455745  0.26988870  0.50805649    -0.07400
C1699       C  0.03796345  0.23417044  0.50454485     0.13500
C1700       C  0.01333737  0.20527644  0.50426802    -0.20900
C1701       C  0.97562491  0.21095317  0.50703159    -0.07400
C1702       C  0.96237973  0.24656773  0.51223652     0.13500
C1703       C  0.92249548  0.25478431  0.51612452    -0.24200
H1704       H  0.97696482  0.30296320  0.51613465     0.14700
H1705       H  0.02384164  0.17793956  0.50107185     0.14800
C1706       C  0.07776937  0.22609785  0.49966613    -0.24200
H1707       H  0.91742907  0.28440072  0.51932670     0.05000
H1708       H  0.91155044  0.24063437  0.53840226     0.08200
H1709       H  0.90758545  0.24586990  0.49369059     0.08200
H1710       H  0.09329717  0.23481874  0.52181669     0.08200
H1711       H  0.08808921  0.24053336  0.47731758     0.08200
H1712       H  0.08285621  0.19653210  0.49612085     0.05000
C1713       C  0.02692752  0.07722675  0.40551506    -0.20800
C1714       C  0.99620000  0.10003822  0.40452112    -0.07400
C1715       C  0.99419457  0.12699095  0.37937443     0.13500
C1716       C  0.02222812  0.13000644  0.35598455    -0.20900
C1717       C  0.05234870  0.10652279  0.35603975    -0.07400
C1718       C  0.05473887  0.07973654  0.38129660     0.13500
C1719       C  0.08545518  0.05278240  0.38201105    -0.24200
H1720       H  0.02866725  0.05660344  0.42474686     0.14700
H1721       H  0.02027717  0.15090898  0.33700418     0.14800
C1722       C  0.96280033  0.15319314  0.37698071    -0.24200
H1723       H  0.08229423  0.03281625  0.40260149     0.05000
H1724       H  0.11161735  0.06730222  0.38551578     0.08200
H1725       H  0.08620407  0.03738592  0.35835951     0.08200
H1726       H  0.95925937  0.16784034  0.40081691     0.08200
H1727       H  0.93769433  0.13802711  0.37082070     0.08200
H1728       H  0.96698697  0.17391903  0.35717132     0.05000
C1729       C  0.02427647  0.97822682  0.47251011    -0.20800
C1730       C  0.04151923  0.97802147  0.50382424    -0.07400
C1731       C  0.02398311  0.99616276  0.53026898     0.13500
C1732       C  0.98942192  0.01157619  0.52517406    -0.20900
C1733       C  0.97126190  0.01007791  0.49428146    -0.07400
C1734       C  0.98954464  0.99322495  0.46749331     0.13500
C1735       C  0.97277444  0.99006643  0.43356650    -0.24200
H1736       H  0.03738651  0.96489556  0.45177590     0.14700
H1737       H  0.97656237  0.02526348  0.54584154     0.14800
C1738       C  0.04107264  0.99951019  0.56405390    -0.24200
H1739       H  0.99019692  0.97433568  0.41626078     0.05000
H1740       H  0.96895028  0.01744516  0.42245926     0.08200
H1741       H  0.94625007  0.97576010  0.43546945     0.08200
H1742       H  0.06851766  0.01186071  0.56167548     0.08200
H1743       H  0.04298159  0.97240166  0.57609157     0.08200
H1744       H  0.02481968  0.01711077  0.58079132     0.05000
C1745       C  0.33072685  0.51901858  0.23494015    -0.20800
C1746       C  0.33622468  0.52677302  0.26869967    -0.07400
C1747       C  0.33865342  0.49754662  0.29145355     0.13500
C1748       C  0.33784172  0.46141549  0.27975437    -0.20900
C1749       C  0.33528298  0.45372459  0.24572448    -0.07400
C1750       C  0.33034988  0.48280911  0.22319599     0.13500
C1751       C  0.32708460  0.47567535  0.18658552    -0.24200
H1752       H  0.32946687  0.54141306  0.21738303     0.14700
H1753       H  0.34198046  0.43911798  0.29701205     0.14800
C1754       C  0.34436319  0.50453633  0.32784328    -0.24200
H1755       H  0.32367883  0.50135124  0.17226757     0.05000
H1756       H  0.30311010  0.45802611  0.18194277     0.08200
H1757       H  0.35187013  0.46177633  0.17737557     0.08200
H1758       H  0.32152380  0.52100896  0.33767777     0.08200
H1759       H  0.37020003  0.51960267  0.33160236     0.08200
H1760       H  0.34570229  0.47873772  0.34229318     0.05000
C1761       C  0.47902554  0.58817131  0.34744721    -0.20800
C1762       C  0.44516940  0.60160651  0.35800236    -0.07400
C1763       C  0.44036126  0.60949589  0.39200352     0.13500
C1764       C  0.47007002  0.60590698  0.41392596    -0.20900
C1765       C  0.50467980  0.59478365  0.40277935    -0.07400
C1766       C  0.50855771  0.58446898  0.36911768     0.13500
C1767       C  0.54342039  0.56899319  0.35556897    -0.24200
H1768       H  0.48273566  0.58127367  0.32152584     0.14700
H1769       H  0.46651884  0.61313591  0.43977883     0.14800
C1770       C  0.40460562  0.62321570  0.40498503    -0.24200
H1771       H  0.54059575  0.56011694  0.32939538     0.05000
H1772       H  0.55180012  0.54495788  0.37040858     0.08200
H1773       H  0.56495087  0.58993204  0.35609690     0.08200
H1774       H  0.38315042  0.60247946  0.40065267     0.08200
H1775       H  0.39727667  0.64899032  0.39217637     0.08200
H1776       H  0.40568429  0.62868081  0.43203520     0.05000
C1777       C  0.46432973  0.75157609  0.24311176    -0.20800
C1778       C  0.46977999  0.71472030  0.25115818    -0.07400
C1779       C  0.50457515  0.70220245  0.25963255     0.13500
C1780       C  0.53289720  0.72733505  0.26093485    -0.20900
C1781       C  0.52742133  0.76466046  0.25403319    -0.07400
C1782       C  0.49262954  0.77684399  0.24442181     0.13500
C1783       C  0.48454006  0.81608161  0.23595046    -0.24200
H1784       H  0.43743168  0.76081142  0.23629058     0.14700
H1785       H  0.55952188  0.71751158  0.26789414     0.14800
C1786       C  0.51193578  0.66297348  0.26875136    -0.24200
H1787       H  0.45555469  0.82016081  0.22943685     0.05000
H1788       H  0.50099896  0.82476783  0.21419462     0.08200
H1789       H  0.49053876  0.83375636  0.25755730     0.08200
H1790       H  0.50598542  0.64502216  0.24733912     0.08200
H1791       H  0.49490788  0.65489180  0.29030670     0.08200
H1792       H  0.54074944  0.65856245  0.27570719     0.05000
C1793       C  0.39432982  0.74373432  0.36101820    -0.20800
C1794       C  0.36111147  0.74248778  0.34429928    -0.07400
C1795       C  0.33620970  0.77149089  0.34876318     0.13500
C1796       C  0.34376186  0.79900905  0.37225848    -0.20900
C1797       C  0.37606874  0.79864181  0.39067999    -0.07400
C1798       C  0.40248066  0.77169821  0.38345091     0.13500
C1799       C  0.43985831  0.77269542  0.39866706    -0.24200
H1800       H  0.41417092  0.72252266  0.35646162     0.14700
H1801       H  0.32370985  0.81985128  0.37731520     0.14800
C1802       C  0.30097762  0.77254334  0.33016566    -0.24200
H1803       H  0.45807088  0.75193261  0.38756458     0.05000
H1804       H  0.43849177  0.76700395  0.42564635     0.08200
H1805       H  0.45234606  0.79989234  0.39430349     0.08200
H1806       H  0.28509425  0.74765669  0.33611275     0.08200
H1807       H  0.30630208  0.77396197  0.30308405     0.08200
H1808       H  0.28439680  0.79662016  0.33704557     0.05000
C1809       C  0.16624451  0.96019938  0.26956788    -0.20800
C1810       C  0.15901358  0.95227852  0.23604013    -0.07400
C1811       C  0.15401857  0.98184608  0.21390755     0.13500
C1812       C  0.15454128  0.01803686  0.22586727    -0.20900
C1813       C  0.15953908  0.02592378  0.25969455    -0.07400
C1814       C  0.16633043  0.99652933  0.28161320     0.13500
C1815       C  0.17119028  0.00339868  0.31809128    -0.24200
H1816       H  0.16924698  0.93773268  0.28689671     0.14700
H1817       H  0.14869674  0.04029253  0.20895203     0.14800
C1818       C  0.14638340  0.97506553  0.17777321    -0.24200
H1819       H  0.17585569  0.97768277  0.33203939     0.05000
H1820       H  0.14652758  0.01659600  0.32836133     0.08200
H1821       H  0.19492548  0.02159550  0.32194606     0.08200
H1822       H  0.12090110  0.95913880  0.17509276     0.08200
H1823       H  0.16916862  0.95954050  0.16662973     0.08200
H1824       H  0.14327723  0.00095146  0.16370357     0.05000
C1825       C  0.06351631  0.85027991  0.10750995    -0.20800
C1826       C  0.06066326  0.87334331  0.13521521    -0.07400
C1827       C  0.03045424  0.89687828  0.13727738     0.13500
C1828       C  0.00321694  0.89559221  0.11293875    -0.20900
C1829       C  0.00434219  0.87089852  0.08618442    -0.07400
C1830       C  0.03589895  0.84872162  0.08299478     0.13500
C1831       C  0.04057846  0.82265352  0.05452005    -0.24200
H1832       H  0.08640822  0.83198302  0.10599400     0.14700
H1833       H  0.98030083  0.91370239  0.11552365     0.14800
C1834       C  0.02653392  0.92342725  0.16556296    -0.24200
H1835       H  0.01826912  0.80223893  0.05466523     0.05000
H1836       H  0.04056752  0.83792044  0.03069926     0.08200
H1837       H  0.06663520  0.80758999  0.05610260     0.08200
H1838       H  0.05091270  0.94123677  0.16672020     0.08200
H1839       H  0.02335064  0.90860286  0.18941297     0.08200
H1840       H  0.00239281  0.94117388  0.16252734     0.05000
C1841       C  0.96606116  0.74326828  0.22092835    -0.20800
C1842       C  0.96657090  0.71366004  0.24328138    -0.07400
C1843       C  0.99640798  0.70875511  0.26471411     0.13500
C1844       C  0.02488126  0.73385527  0.26321070    -0.20900
C1845       C  0.02377021  0.76340696  0.24118650    -0.07400
C1846       C  0.99437648  0.76835211  0.21972469     0.13500
C1847       C  0.99341746  0.79924670  0.19495570    -0.24200
H1848       H  0.94344817  0.74676619  0.20410244     0.14700
H1849       H  0.04826918  0.73043772  0.27917155     0.14800
C1850       C  0.99829478  0.67800353  0.28954705    -0.24200
H1851       H  0.96837011  0.79859548  0.17970165     0.05000
H1852       H  0.01711314  0.79736387  0.17795505     0.08200
H1853       H  0.99428914  0.82574896  0.20813722     0.08200
H1854       H  0.99884838  0.65143885  0.27647030     0.08200
H1855       H  0.97447354  0.67909730  0.30645425     0.08200
H1856       H  0.02316071  0.67965461  0.30498604     0.05000
C1857       C  0.10578888  0.87746947  0.35026781    -0.20800
C1858       C  0.10480789  0.84186823  0.33722722    -0.07400
C1859       C  0.10086954  0.81184772  0.35947689     0.13500
C1860       C  0.09935564  0.81843069  0.39358171    -0.20900
C1861       C  0.09953635  0.85381195  0.40610165    -0.07400
C1862       C  0.10266171  0.88376248  0.38444782     0.13500
C1863       C  0.10293625  0.92218820  0.39743813    -0.24200
H1864       H  0.10867153  0.90062155  0.33369846     0.14700
H1865       H  0.09724617  0.79576531  0.41072695     0.14800
C1866       C  0.09696792  0.77281402  0.34818659    -0.24200
H1867       H  0.10590513  0.94253024  0.37712986     0.05000
H1868       H  0.12594802  0.92578041  0.41484814     0.08200
H1869       H  0.07709052  0.92774381  0.41068257     0.08200
H1870       H  0.12193658  0.76389023  0.33522216     0.08200
H1871       H  0.07311514  0.77017359  0.33159117     0.08200
H1872       H  0.09260646  0.75376961  0.36931922     0.05000
C1873       C  0.10963722  0.74237733  0.13088125    -0.20800
C1874       C  0.13886779  0.73837705  0.15260240    -0.07400
C1875       C  0.15890840  0.70542019  0.15206862     0.13500
C1876       C  0.15057702  0.67846255  0.12829025    -0.20900
C1877       C  0.12227416  0.68337982  0.10543238    -0.07400
C1878       C  0.10051042  0.71534584  0.10793951     0.13500
C1879       C  0.06676234  0.72127910  0.08735286    -0.24200
H1880       H  0.09330358  0.76686800  0.13221780     0.14700
H1881       H  0.16698350  0.65405480  0.12686164     0.14800
C1882       C  0.19014468  0.69925903  0.17527208    -0.24200
H1883       H  0.05098405  0.74526064  0.09591103     0.05000
H1884       H  0.04871704  0.69710420  0.08934750     0.08200
H1885       H  0.07397064  0.72652932  0.06104584     0.08200
H1886       H  0.18053676  0.69943414  0.20137489     0.08200
H1887       H  0.21051441  0.72112976  0.17140331     0.08200
H1888       H  0.20361403  0.67267205  0.17077196     0.05000
C1889       C  0.24621028  0.71796360  0.28264102    -0.20800
C1890       C  0.26631378  0.70365675  0.25623641    -0.07400
C1891       C  0.26637126  0.72323433  0.22550041     0.13500
C1892       C  0.24743640  0.75636186  0.22279011    -0.20900
C1893       C  0.22750985  0.77081603  0.24924937    -0.07400
C1894       C  0.22720299  0.75107564  0.27987466     0.13500
C1895       C  0.20725659  0.76431078  0.31027455    -0.24200
H1896       H  0.24609403  0.70353557  0.30614755     0.14700
H1897       H  0.24739854  0.77063921  0.19921788     0.14800
C1898       C  0.28608787  0.71000212  0.19490759    -0.24200
H1899       H  0.21316996  0.74735237  0.33247278     0.05000
H1900       H  0.17758195  0.76273371  0.30622202     0.08200
H1901       H  0.21551654  0.79271543  0.31602150     0.08200
H1902       H  0.27752094  0.68171221  0.18902503     0.08200
H1903       H  0.31586425  0.71138755  0.19869094     0.08200
H1904       H  0.28015633  0.72707772  0.17279248     0.05000
C1905       C  0.25560893  0.59214072  0.96519132    -0.20800
C1906       C  0.28174562  0.58141643  0.98831788    -0.07400
C1907       C  0.27005059  0.57009339  0.02022217     0.13500
C1908       C  0.23271103  0.57159623  0.02866427    -0.20900
C1909       C  0.20686887  0.58520069  0.00622702    -0.07400
C1910       C  0.21861288  0.59432369  0.97365328     0.13500
C1911       C  0.19256839  0.60760776  0.94774287    -0.24200
H1912       H  0.26457507  0.60125200  0.94087585     0.14700
H1913       H  0.22405813  0.56444972  0.05356804     0.14800
C1914       C  0.29717804  0.55836762  0.04591181    -0.24200
H1915       H  0.20586661  0.61107275  0.92316216     0.05000
H1916       H  0.18198867  0.63461703  0.95515151     0.08200
H1917       H  0.17017047  0.58758340  0.94480063     0.08200
H1918       H  0.31597014  0.58119202  0.05145062     0.08200
H1919       H  0.31299477  0.53482915  0.03650696     0.08200
H1920       H  0.28370842  0.55006460  0.06944027     0.05000
C1921       C  0.37565949  0.72241297  0.90217922    -0.20800
C1922       C  0.36202180  0.68695767  0.89682852    -0.07400
C1923       C  0.34387492  0.68019225  0.86650990     0.13500
C1924       C  0.33902408  0.70912736  0.84340370    -0.20900
C1925       C  0.35223232  0.74474501  0.84947430    -0.07400
C1926       C  0.37159367  0.75084191  0.87931039     0.13500
C1927       C  0.38944486  0.78689026  0.88744004    -0.24200
H1928       H  0.39013505  0.72841996  0.92484574     0.14700
H1929       H  0.32475367  0.70384144  0.82044465     0.14800
C1930       C  0.32954997  0.64286433  0.85833200    -0.24200
H1931       H  0.40540116  0.78567200  0.91073980     0.05000
H1932       H  0.36859145  0.80832527  0.89090587     0.08200
H1933       H  0.40857942  0.79468963  0.86730870     0.08200
H1934       H  0.30934988  0.63422369  0.87729846     0.08200
H1935       H  0.35229410  0.62307737  0.85764485     0.08200
H1936       H  0.31603546  0.64240740  0.83375650     0.05000
C1937       C  0.47809380  0.72928940  0.02748202    -0.20800
C1938       C  0.47137122  0.71213972  0.99719249    -0.07400
C1939       C  0.48950307  0.72334552  0.96798863     0.13500
C1940       C  0.51457584  0.75160586  0.96994445    -0.20900
C1941       C  0.52195056  0.76814758  0.00029098    -0.07400
C1942       C  0.50344116  0.75752992  0.02935411     0.13500
C1943       C  0.50995428  0.77644016  0.06191215    -0.24200
H1944       H  0.46412081  0.72002677  0.04969604     0.14700
H1945       H  0.52796234  0.76141023  0.94763843     0.14800
C1946       C  0.48179630  0.70630822  0.93470515    -0.24200
H1947       H  0.49309058  0.76455955  0.08214146     0.05000
H1948       H  0.50307729  0.80578764  0.05959974     0.08200
H1949       H  0.53894392  0.77379532  0.06894947     0.08200
H1950       H  0.45232515  0.70768200  0.92940048     0.08200
H1951       H  0.49064753  0.67744419  0.93453220     0.08200
H1952       H  0.49629033  0.72065817  0.91429224     0.05000
C1953       C  0.41223305  0.60278133  0.11341016    -0.20800
C1954       C  0.39095358  0.62495038  0.09287346    -0.07400
C1955       C  0.36572138  0.64936816  0.10722111     0.13500
C1956       C  0.36298171  0.65134623  0.14174381    -0.20900
C1957       C  0.38422024  0.62924426  0.16231775    -0.07400
C1958       C  0.40892968  0.60427319  0.14802382     0.13500
C1959       C  0.43288492  0.58020240  0.16894172    -0.24200
H1960       H  0.43158034  0.58420577  0.10226548     0.14700
H1961       H  0.34424891  0.67055004  0.15282251     0.14800
C1962       C  0.34262861  0.67458989  0.08654843    -0.24200
H1963       H  0.45162548  0.56367415  0.15350099     0.05000
H1964       H  0.41594444  0.56099290  0.18368927     0.08200
H1965       H  0.44960050  0.59717816  0.18581093     0.08200
H1966       H  0.32332205  0.65852063  0.07135932     0.08200
H1967       H  0.36019427  0.69152849  0.07016841     0.08200
H1968       H  0.32629274  0.69332087  0.10217171     0.05000
C1969       C  0.52804846  0.58715575  0.90871314    -0.20800
C1970       C  0.49267026  0.60048063  0.90287444    -0.07400
C1971       C  0.48631405  0.62008859  0.87304413     0.13500
C1972       C  0.51462614  0.62496160  0.85025688    -0.20900
C1973       C  0.54972195  0.61084386  0.85527070    -0.07400
C1974       C  0.55654274  0.59192931  0.88531730     0.13500
C1975       C  0.59336659  0.57635392  0.89280993    -0.24200
H1976       H  0.53340870  0.57260085  0.93157794     0.14700
H1977       H  0.50883357  0.64011552  0.82785194     0.14800
C1978       C  0.45001665  0.63691181  0.86459675    -0.24200
H1979       H  0.59376550  0.56211901  0.91715665     0.05000
H1980       H  0.61382227  0.59861223  0.89359857     0.08200
H1981       H  0.60100525  0.55633232  0.87344117     0.08200
H1982       H  0.44161837  0.65609370  0.88439384     0.08200
H1983       H  0.42921697  0.61527869  0.86136334     0.08200
H1984       H  0.45090667  0.65263963  0.84103055     0.05000
C1985       C  0.75502699  0.39871578  0.96275977    -0.20800
C1986       C  0.78168494  0.40731137  0.98607700    -0.07400
C1987       C  0.77074657  0.41606423  0.01882748     0.13500
C1988       C  0.73370997  0.41334320  0.02790928    -0.20900
C1989       C  0.70743502  0.40141504  0.00516292    -0.07400
C1990       C  0.71835624  0.39520270  0.97191025     0.13500
C1991       C  0.69172379  0.38304431  0.94613180    -0.24200
H1992       H  0.76340302  0.39150012  0.93780698     0.14700
H1993       H  0.72578856  0.41813195  0.05344010     0.14800
C1994       C  0.79780280  0.42629148  0.04514534    -0.24200
H1995       H  0.70396034  0.38246456  0.92092463     0.05000
H1996       H  0.66862284  0.40230170  0.94568890     0.08200
H1997       H  0.68233626  0.35504539  0.95204116     0.08200
H1998       H  0.82590386  0.42835549  0.03535019     0.08200
H1999       H  0.79735910  0.40555360  0.06526535     0.08200
H2000       H  0.79049740  0.45321732  0.05570056     0.05000
C2001       C  0.62805845  0.30378002  0.13592541    -0.20800
C2002       C  0.63775586  0.29553000  0.10316122    -0.07400
C2003       C  0.65209809  0.26048188  0.09611399     0.13500
C2004       C  0.65401059  0.23416383  0.12136509    -0.20900
C2005       C  0.64215728  0.24151983  0.15368231    -0.07400
C2006       C  0.62983499  0.27724268  0.16126037     0.13500
C2007       C  0.61625394  0.28706713  0.19531945    -0.24200
H2008       H  0.61708096  0.33050637  0.14135646     0.14700
H2009       H  0.66435986  0.20723651  0.11563005     0.14800
C2010       C  0.66582560  0.25046235  0.06203688    -0.24200
H2011       H  0.60614849  0.31555362  0.19634433     0.05000
H2012       H  0.63846892  0.28451458  0.21368501     0.08200
H2013       H  0.59343258  0.26877797  0.20217563     0.08200
H2014       H  0.68595034  0.27102404  0.05342671     0.08200
H2015       H  0.64307587  0.24880969  0.04419142     0.08200
H2016       H  0.67936514  0.22343782  0.06202372     0.05000
C2017       C  0.47846796  0.27685968  0.00363616    -0.20800
C2018       C  0.51596409  0.26987936  0.00143144    -0.07400
C2019       C  0.52836800  0.23413459  0.99552695     0.13500
C2020       C  0.50284391  0.20626030  0.99320712    -0.20900
C2021       C  0.46570022  0.21288807  0.99829957    -0.07400
C2022       C  0.45313317  0.24869759  0.00283198     0.13500
C2023       C  0.41372857  0.25732198  0.00913920    -0.24200
H2024       H  0.46884376  0.30442450  0.00734353     0.14700
H2025       H  0.51219179  0.17863695  0.98913951     0.14800
C2026       C  0.56810675  0.22442343  0.99365760    -0.24200
H2027       H  0.40928219  0.28689222  0.01331298     0.05000
H2028       H  0.40438912  0.24260641  0.03167683     0.08200
H2029       H  0.39709132  0.24914081  0.98750033     0.08200
H2030       H  0.58193084  0.23290083  0.01681463     0.08200
H2031       H  0.58099547  0.23794781  0.97198551     0.08200
H2032       H  0.57227712  0.19461628  0.99080424     0.05000
C2033       C  0.48155679  0.38685216  0.16182514    -0.20800
C2034       C  0.44495818  0.38198799  0.15268533    -0.07400
C2035       C  0.43619506  0.38395504  0.11857318     0.13500
C2036       C  0.46436100  0.38731026  0.09480257    -0.20900
C2037       C  0.50130026  0.38919621  0.10399933    -0.07400
C2038       C  0.50958260  0.39057672  0.13831303     0.13500
C2039       C  0.54774345  0.39614086  0.15086035    -0.24200
H2040       H  0.48861885  0.38698863  0.18787857     0.14700
H2041       H  0.45740327  0.38740828  0.06872661     0.14800
C2042       C  0.39749466  0.38164198  0.10687473    -0.24200
H2043       H  0.54854687  0.39914726  0.17824554     0.05000
H2044       H  0.55951733  0.42133342  0.13984096     0.08200
H2045       H  0.56476310  0.37226030  0.14455013     0.08200
H2046       H  0.38159863  0.40453113  0.11744780     0.08200
H2047       H  0.38529918  0.35526195  0.11469660     0.08200
H2048       H  0.39561481  0.38349835  0.07944293     0.05000
C2049       C  0.50677858  0.47969594  0.03339743    -0.20800
C2050       C  0.53145431  0.47522022  0.00715090    -0.07400
C2051       C  0.52164895  0.48814948  0.97521161     0.13500
C2052       C  0.48716716  0.50367480  0.97022160    -0.20900
C2053       C  0.46214162  0.50756858  0.99635905    -0.07400
C2054       C  0.47238348  0.49535544  0.02849438     0.13500
C2055       C  0.44682263  0.49756372  0.05776404    -0.24200
H2056       H  0.51361366  0.46905129  0.05765918     0.14700
H2057       H  0.48036062  0.51423905  0.94593365     0.14800
C2058       C  0.54783085  0.48661297  0.94635952    -0.24200
H2059       H  0.45783279  0.48323067  0.07984925     0.05000
H2060       H  0.42050338  0.48457371  0.05142519     0.08200
H2061       H  0.44232883  0.52630870  0.06503889     0.08200
H2062       H  0.55335752  0.45804312  0.93912319     0.08200
H2063       H  0.57366635  0.50027313  0.95319293     0.08200
H2064       H  0.53687716  0.50068875  0.92412657     0.05000
C2065       C  0.65606090  0.52540235  0.72713581    -0.20800
C2066       C  0.66029070  0.53345551  0.76096328    -0.07400
C2067       C  0.66800900  0.50465504  0.78317670     0.13500
C2068       C  0.66944783  0.46843024  0.77130594    -0.20900
C2069       C  0.66223208  0.46016596  0.73791703    -0.07400
C2070       C  0.65657254  0.48922724  0.71546803     0.13500
C2071       C  0.64906381  0.48186139  0.67940996    -0.24200
H2072       H  0.64972445  0.54735145  0.71006585     0.14700
H2073       H  0.67359559  0.44622819  0.78857382     0.14800
C2074       C  0.67227204  0.51193684  0.81966369    -0.24200
H2075       H  0.64552665  0.50751377  0.66507666     0.05000
H2076       H  0.62385031  0.46546569  0.67689378     0.08200
H2077       H  0.67211915  0.46659511  0.66843425     0.08200
H2078       H  0.64696197  0.52407888  0.82972288     0.08200
H2079       H  0.69516112  0.53117293  0.82358737     0.08200
H2080       H  0.67800082  0.48655620  0.83374792     0.05000
C2081       C  0.53391600  0.39027986  0.58934943    -0.20800
C2082       C  0.49833452  0.39779244  0.60052208    -0.07400
C2083       C  0.49282500  0.40412989  0.63480305     0.13500
C2084       C  0.52189641  0.40007967  0.65676686    -0.20900
C2085       C  0.55655339  0.38900946  0.64615007    -0.07400
C2086       C  0.56293723  0.38512865  0.61176442     0.13500
C2087       C  0.59951187  0.37380835  0.59870742    -0.24200
H2088       H  0.53876583  0.38675430  0.56310161     0.14700
H2089       H  0.51701250  0.40421914  0.68298157     0.14800
C2090       C  0.45652195  0.41522854  0.64896866    -0.24200
H2091       H  0.59952204  0.37131968  0.57126674     0.05000
H2092       H  0.60708806  0.34692332  0.60932266     0.08200
H2093       H  0.62023615  0.39444339  0.60557631     0.08200
H2094       H  0.43674247  0.39249761  0.64680885     0.08200
H2095       H  0.44634362  0.43976935  0.63579641     0.08200
H2096       H  0.45833310  0.42206437  0.67571853     0.05000
C2097       C  0.52921296  0.24197252  0.77132683    -0.20800
C2098       C  0.52642138  0.27362417  0.75202464    -0.07400
C2099       C  0.49436578  0.28198263  0.73506237     0.13500
C2100       C  0.46550948  0.25764275  0.73730317    -0.20900
C2101       C  0.46809218  0.22532423  0.75619483    -0.07400
C2102       C  0.50023262  0.21757343  0.77385545     0.13500
C2103       C  0.50433096  0.18429057  0.79556768    -0.24200
H2104       H  0.55435039  0.23626628  0.78418813     0.14700
H2105       H  0.44105140  0.26364386  0.72348648     0.14800
C2106       C  0.49110488  0.31549353  0.71344642    -0.24200
H2107       H  0.53079227  0.18411526  0.80869233     0.05000
H2108       H  0.50307484  0.15923845  0.78026532     0.08200
H2109       H  0.48250889  0.18372083  0.81463145     0.08200
H2110       H  0.51212058  0.31488987  0.69366045     0.08200
H2111       H  0.49470578  0.34040705  0.72863779     0.08200
H2112       H  0.46413996  0.31715716  0.70128805     0.05000
C2113       C  0.58535853  0.32374781  0.85781705    -0.20800
C2114       C  0.60614003  0.35078930  0.84175431    -0.07400
C2115       C  0.61927331  0.38077293  0.86010529     0.13500
C2116       C  0.61184260  0.38259506  0.89410187    -0.20900
C2117       C  0.59170030  0.35531516  0.91005621    -0.07400
C2118       C  0.57791554  0.32568126  0.89181368     0.13500
C2119       C  0.55652873  0.29552405  0.90830384    -0.24200
H2120       H  0.57484623  0.30096618  0.84367450     0.14700
H2121       H  0.62172433  0.40549286  0.90834136     0.14800
C2122       C  0.64203481  0.41028689  0.84442835    -0.24200
H2123       H  0.54825834  0.27419511  0.89033836     0.05000
H2124       H  0.53154782  0.30672757  0.91981657     0.08200
H2125       H  0.57336086  0.28239927  0.92768401     0.08200
H2126       H  0.62558595  0.42561345  0.82612114     0.08200
H2127       H  0.66603445  0.39802729  0.83207208     0.08200
H2128       H  0.65202022  0.43010659  0.86307235     0.05000
C2129       C  0.63123239  0.18381433  0.63791751    -0.20800
C2130       C  0.64008798  0.19196216  0.60484955    -0.07400
C2131       C  0.65374931  0.22725352  0.59714430     0.13500
C2132       C  0.65613990  0.25379722  0.62208200    -0.20900
C2133       C  0.64532543  0.24649754  0.65480773    -0.07400
C2134       C  0.63347372  0.21058638  0.66296276     0.13500
C2135       C  0.62116768  0.20055571  0.69748655    -0.24200
H2136       H  0.62064569  0.15702830  0.64384109     0.14700
H2137       H  0.66599647  0.28077744  0.61577614     0.14800
C2138       C  0.66614491  0.23738418  0.56258945    -0.24200
H2139       H  0.61138588  0.17192999  0.69894428     0.05000
H2140       H  0.59843086  0.21846123  0.70513785     0.08200
H2141       H  0.64407648  0.20331256  0.71511032     0.08200
H2142       H  0.64267184  0.23876136  0.54548953     0.08200
H2143       H  0.68605520  0.21703844  0.55348217     0.08200
H2144       H  0.67951930  0.26454961  0.56195719     0.05000
C2145       C  0.83452426  0.02648231  0.72846371    -0.20800
C2146       C  0.83344164  0.03277664  0.76286183    -0.07400
C2147       C  0.83132375  0.00251326  0.78451414     0.13500
C2148       C  0.83261071  0.96684473  0.77154622    -0.20900
C2149       C  0.83636086  0.96055783  0.73732837    -0.07400
C2150       C  0.83614654  0.99079109  0.71548361     0.13500
C2151       C  0.83981819  0.98543893  0.67862638    -0.24200
H2152       H  0.83697296  0.04961576  0.71178703     0.14700
H2153       H  0.83324126  0.94377152  0.78840007     0.14800
C2154       C  0.82996541  0.00797517  0.82148338    -0.24200
H2155       H  0.83938220  0.01181468  0.66500754     0.05000
H2156       H  0.81697799  0.96840841  0.66955431     0.08200
H2157       H  0.86586082  0.97160408  0.67292191     0.08200
H2158       H  0.80567882  0.02433219  0.82804209     0.08200
H2159       H  0.85472473  0.02256228  0.82986625     0.08200
H2160       H  0.82834381  0.98160546  0.83502618     0.05000
C2161       C  0.95926338  0.10258464  0.91808831    -0.20800
C2162       C  0.99404715  0.09060723  0.90842793    -0.07400
C2163       C  0.99928209  0.07943739  0.87518287     0.13500
C2164       C  0.97140692  0.08461863  0.85206099    -0.20900
C2165       C  0.93810165  0.10054274  0.86087883    -0.07400
C2166       C  0.93143196  0.10838601  0.89463043     0.13500
C2167       C  0.89601743  0.12477005  0.90571155    -0.24200
H2168       H  0.95430896  0.10904650  0.94381163     0.14700
H2169       H  0.97619969  0.07733050  0.82639558     0.14800
C2170       C  0.03387462  0.06143352  0.86370663    -0.24200
H2171       H  0.89570166  0.13002631  0.93281691     0.05000
H2172       H  0.87336244  0.10581669  0.90000549     0.08200
H2173       H  0.89158602  0.15112601  0.89274370     0.08200
H2174       H  0.04020834  0.03791830  0.88010296     0.08200
H2175       H  0.05667603  0.08122823  0.86379344     0.08200
H2176       H  0.03148467  0.05097562  0.83799254     0.05000
C2177       C  0.03340856  0.23108757  0.77087639    -0.20800
C2178       C  0.03295304  0.26120083  0.74911259    -0.07400
C2179       C  0.00392239  0.26564638  0.72673313     0.13500
C2180       C  0.97525717  0.24063957  0.72786237    -0.20900
C2181       C  0.97552686  0.21139164  0.75030264    -0.07400
C2182       C  0.00494305  0.20609452  0.77176817     0.13500
C2183       C  0.00550527  0.17533806  0.79669327    -0.24200
H2184       H  0.05574146  0.22757599  0.78803139     0.14700
H2185       H  0.95209255  0.24425665  0.71164959     0.14800
C2186       C  0.00316745  0.29593572  0.70139159    -0.24200
H2187       H  0.03069612  0.17556897  0.81177450     0.05000
H2188       H  0.00398423  0.14877334  0.78366736     0.08200
H2189       H  0.98204941  0.17785356  0.81388071     0.08200
H2190       H  0.02795699  0.29479341  0.68568041     0.08200
H2191       H  0.00166098  0.32274262  0.71395827     0.08200
H2192       H  0.97922155  0.29371070  0.68484044     0.05000
C2193       C  0.86286826  0.15076052  0.64234177    -0.20800
C2194       C  0.88436755  0.12948817  0.66338093    -0.07400
C2195       C  0.90793527  0.10302260  0.64966517     0.13500
C2196       C  0.91087565  0.10013652  0.61511228    -0.20900
C2197       C  0.89024005  0.12228025  0.59404755    -0.07400
C2198       C  0.86507353  0.14723057  0.60784812     0.13500
C2199       C  0.84159632  0.17150215  0.58660703    -0.24200
H2200       H  0.84453987  0.17063389  0.65301510     0.14700
H2201       H  0.92973273  0.08077956  0.60442708     0.14800
C2202       C  0.93129479  0.07886812  0.67107547    -0.24200
H2203       H  0.82503109  0.19047037  0.60178180     0.05000
H2204       H  0.82248741  0.15466900  0.57188107     0.08200
H2205       H  0.85887228  0.18819430  0.56976883     0.08200
H2206       H  0.91387619  0.06080837  0.68655484     0.08200
H2207       H  0.94884776  0.09583480  0.68722977     0.08200
H2208       H  0.94921764  0.06109394  0.65599205     0.05000
C2209       C  0.83679124  0.24088600  0.87768724    -0.20800
C2210       C  0.85570376  0.24482796  0.84761903    -0.07400
C2211       C  0.87494598  0.27778196  0.84148291     0.13500
C2212       C  0.87558002  0.30523848  0.86590708    -0.20900
C2213       C  0.85785004  0.30051749  0.89645471    -0.07400
C2214       C  0.83742147  0.26826639  0.90200834     0.13500
C2215       C  0.81572699  0.26277346  0.93343351    -0.24200
H2216       H  0.82151971  0.21607252  0.88225925     0.14700
H2217       H  0.89166221  0.32964985  0.86187450     0.14800
C2218       C  0.89681620  0.28333299  0.81022770    -0.24200
H2219       H  0.79956830  0.23718031  0.93273390     0.05000
H2220       H  0.79660575  0.28584237  0.93674238     0.08200
H2221       H  0.83398326  0.26105197  0.95518116     0.08200
H2222       H  0.87872001  0.28304396  0.78829817     0.08200
H2223       H  0.91741257  0.26144616  0.80799244     0.08200
H2224       H  0.91141205  0.30987125  0.81024448     0.05000
C2225       C  0.76328706  0.23789359  0.78287500    -0.20800
C2226       C  0.76795351  0.21279191  0.75694017    -0.07400
C2227       C  0.75465245  0.22201334  0.72502034     0.13500
C2228       C  0.73718482  0.25566969  0.72008688    -0.20900
C2229       C  0.73245504  0.28071237  0.74606519    -0.07400
C2230       C  0.74613067  0.27167604  0.77785430     0.13500
C2231       C  0.74388936  0.29800739  0.80645316    -0.24200
H2232       H  0.77452514  0.23175539  0.80704010     0.14700
H2233       H  0.72593213  0.26182579  0.69593485     0.14800
C2234       C  0.75788828  0.19621921  0.69609562    -0.24200
H2235       H  0.75903317  0.28793303  0.82841452     0.05000
H2236       H  0.71531321  0.30193872  0.81431922     0.08200
H2237       H  0.75588219  0.32461921  0.79901361     0.08200
H2238       H  0.74634044  0.16923387  0.70295921     0.08200
H2239       H  0.78669571  0.19308450  0.68862290     0.08200
H2240       H  0.74294769  0.20636648  0.67404338     0.05000
loop_ 
_geom_bond_atom_site_label_1 
_geom_bond_atom_site_label_2 
_geom_bond_distance 
_geom_bond_site_symmetry_2 
_ccdc_geom_bond_type 
O1          Cr19   2.010       .  S
O1            C9   1.268       .  A
O2          Cr19   1.947       .  S
O2            C3   1.245       .  A
C3            O4   1.271       .  A
C3         C2226   1.490       .  S
O4          Cr20   2.049       .  S
O5          Cr20   2.022       .  S
O5            C6   1.270       .  A
C6            O7   1.262       .  A
C6         C2146   1.488       .  S
O7          Cr21   1.994       .  S
O8          Cr21   1.959       .  S
O8            C9   1.255       .  A
C9         C2194   1.473       .  S
O10         Cr19   1.934       .  S
O10          C18   1.249       .  A
O11         Cr19   2.025       .  S
O11          C12   1.271       .  A
C12          O13   1.268       .  A
C12        C2210   1.493       .  S
O13         Cr20   1.990       .  S
O14         Cr20   2.051       .  S
O14          C15   1.277       .  A
C15          O16   1.258       .  A
C15        C2165   1.491       .  S
O16         Cr21   1.952       .  S
O17         Cr21   2.004       .  S
O17          C18   1.263       .  A
C18        C2181   1.447       .  S
Cr19         O22   1.760       .  S
Cr20         O22   1.773       .  S
Cr21         O22   1.764       .  S
O23         Cr41   1.969       .  S
O23          C31   1.257       .  A
O24         Cr41   1.999       .  S
O24          C25   1.264       .  A
C25          O26   1.271       .  A
C25        C2069   1.491       .  S
O26         Cr42   2.021       .  S
O27         Cr42   2.053       .  S
O27          C28   1.274       .  A
C28          O29   1.247       .  A
C28        C2229   1.489       .  S
O29         Cr43   1.946       .  S
O30         Cr43   2.002       .  S
O30          C31   1.264       .  A
C31        C2114   1.474       .  S
O32         Cr41   1.998       .  S
O32          C40   1.263       .  A
O33         Cr41   1.946       .  S
O33          C34   1.255       .  A
C34          O35   1.276       .  A
C34        C2085   1.494       .  S
O35         Cr42   2.053       .  S
O36         Cr42   1.996       .  S
O36          C37   1.268       .  A
C37          O38   1.267       .  A
C37        C2133   1.498       .  S
O38         Cr43   2.018       .  S
O39         Cr43   1.932       .  S
O39          C40   1.250       .  A
C40        C2098   1.441       .  S
Cr41         O44   1.761       .  S
Cr42         O44   1.773       .  S
Cr43         O44   1.761       .  S
O45         Cr63   1.958   1_556  S
O45          C53   1.254       .  A
O46         Cr63   2.005       .  S
O46          C47   1.265       .  A
C47          O48   1.270       .  A
C47        C1989   1.496       .  S
O48         Cr64   2.017       .  S
O49         Cr64   2.064       .  S
O49          C50   1.278       .  A
C50          O51   1.244   1_554  A
C50        C2050   1.486       .  S
O51         Cr65   1.939   1_556  S
O52         Cr65   2.012   1_556  S
O52          C53   1.263       .  A
C53        C2117   1.461       .  S
O54         Cr63   2.007   1_556  S
O54          C62   1.265   1_556  A
O55         Cr63   1.947       .  S
O55          C56   1.255       .  A
C56          O57   1.279       .  A
C56        C2002   1.488       .  S
O57         Cr64   2.051       .  S
O58         Cr64   1.989       .  S
O58          C59   1.263       .  A
C59          O60   1.269       .  A
C59        C2037   1.506       .  S
O60         Cr65   2.027       .  S
O61         Cr65   1.932       .  S
O61          C62   1.252       .  A
C62        C2018   1.462       .  S
Cr63         O66   1.757       .  S
Cr64         O66   1.767       .  S
Cr65         O66   1.757       .  S
O67         Cr85   2.015   1_554  S
O67          C75   1.268       .  A
O68         Cr85   1.936   1_554  S
O68          C69   1.241   1_554  A
C69          O70   1.277       .  A
C69        C2053   1.492       .  S
O70         Cr86   2.070       .  S
O71         Cr86   2.018       .  S
O71          C72   1.270       .  A
C72          O73   1.265       .  A
C72        C1906   1.489       .  S
O73         Cr87   2.000       .  S
O74         Cr87   1.954   1_554  S
O74          C75   1.254       .  A
C75        C1954   1.472       .  S
O76         Cr85   1.926       .  S
O76          C84   1.247       .  A
O77         Cr85   2.036       .  S
O77          C78   1.271       .  A
C78          O79   1.260       .  A
C78        C1970   1.502       .  S
O79         Cr86   1.968       .  S
O80         Cr86   2.069       .  S
O80          C81   1.281       .  A
C81          O82   1.257       .  A
C81        C1922   1.511       .  S
O82         Cr87   1.940       .  S
O83         Cr87   2.009   1_554  S
O83          C84   1.265   1_554  A
C84        C1938   1.443       .  S
Cr85         O88   1.757       .  S
Cr86         O88   1.767       .  S
Cr87         O88   1.754       .  S
O89        Cr107   1.978       .  S
O89          C97   1.261       .  A
O90        Cr107   2.009       .  S
O90          C91   1.266       .  A
C91          O92   1.273       .  A
C91        C1810   1.502       .  S
O92        Cr108   2.030       .  S
O93        Cr108   2.069       .  S
O93          C94   1.278       .  A
C94          O95   1.241       .  A
C94        C1893   1.502       .  S
O95        Cr109   1.938       .  S
O96        Cr109   1.995       .  S
O96          C97   1.261       .  A
C97        C1858   1.487       .  S
O98        Cr107   2.006       .  S
O98         C106   1.266       .  A
O99        Cr107   1.959       .  S
O99         C100   1.257       .  A
C100        O101   1.279       .  A
C100       C1826   1.496       .  S
O101       Cr108   2.056       .  S
O102       Cr108   1.988       .  S
O102        C103   1.264       .  A
C103        O104   1.265       .  A
C103       C1874   1.489       .  S
O104       Cr109   2.023       .  S
O105       Cr109   1.931       .  S
O105        C106   1.250       .  A
C106       C1845   1.441       .  S
Cr107       O110   1.762       .  S
Cr108       O110   1.769       .  S
Cr109       O110   1.760       .  S
O111       Cr129   2.001       .  S
O111        C119   1.263       .  A
O112       Cr129   1.939       .  S
O112        C113   1.240       .  A
C113        O114   1.277       .  A
C113       C1890   1.501       .  S
O114       Cr130   2.069       .  S
O115       Cr130   2.012       .  S
O115        C116   1.270       .  A
C116        O117   1.266       .  A
C116       C1746   1.486       .  S
O117       Cr131   2.003       .  S
O118       Cr131   1.966       .  S
O118        C119   1.254       .  A
C119       C1957   1.472       .  S
O120       Cr129   1.927       .  S
O120        C128   1.252       .  A
O121       Cr129   2.033       .  S
O121        C122   1.268       .  A
C122        O123   1.266       .  A
C122       C1794   1.490       .  S
O123       Cr130   1.990       .  S
O124       Cr130   2.057       .  S
O124        C125   1.278       .  A
C125        O126   1.255       .  A
C125       C1762   1.496       .  S
O126       Cr131   1.948       .  S
O127       Cr131   2.011       .  S
O127        C128   1.268       .  A
C128       C1778   1.458       .  S
Cr129       O132   1.755       .  S
Cr130       O132   1.769       .  S
Cr131       O132   1.758       .  S
O133       Cr151   2.019       .  S
O133        C141   1.269       .  A
O134       Cr151   1.939       .  S
O134        C135   1.242       .  A
C135        O136   1.273       .  A
C135       C1733   1.508       .  S
O136       Cr152   2.068       .  S
O137       Cr152   2.023       .  S
O137        C138   1.272       .  A
C138        O139   1.265       .  A
C138       C1682   1.488       .  S
O139       Cr153   1.996       .  S
O140       Cr153   1.953       .  S
O140        C141   1.253       .  A
C141       C2197   1.475       .  S
O142       Cr151   1.930       .  S
O142        C150   1.250       .  A
O143       Cr151   2.040       .  S
O143        C144   1.273       .  A
C144        O145   1.264       .  A
C144       C1714   1.494       .  S
O145       Cr152   1.977       .  S
O146       Cr152   2.056       .  S
O146        C147   1.279       .  A
C147        O148   1.257       .  A
C147       C1666   1.492       .  S
O148       Cr153   1.954       .  S
O149       Cr153   2.013       .  S
O149        C150   1.265       .  A
C150       C1701   1.474       .  S
Cr151       O154   1.754       .  S
Cr152       O154   1.769       .  S
Cr153       O154   1.756       .  S
O155       Cr173   1.962       .  S
O155        C163   1.253       .  A
O156       Cr173   2.005       .  S
O156        C157   1.267       .  A
C157        O158   1.273       .  A
C157       C1621   1.504       .  S
O158       Cr174   2.026       .  S
O159       Cr174   2.069       .  S
O159        C160   1.273       .  A
C160        O161   1.242       .  A
C160       C1730   1.504       .  S
O161       Cr175   1.942       .  S
O162       Cr175   2.002       .  S
O162        C163   1.260       .  A
C163       C1861   1.462       .  S
O164       Cr173   2.001       .  S
O164        C172   1.265       .  A
O165       Cr173   1.959       .  S
O165        C166   1.256       .  A
C166        O167   1.279       .  A
C166       C1602   1.504       .  S
O167       Cr174   2.062       .  S
O168       Cr174   1.999       .  S
O168        C169   1.269       .  A
C169        O170   1.270       .  A
C169       C1653   1.504       .  S
O170       Cr175   2.028       .  S
O171       Cr175   1.931       .  S
O171        C172   1.251       .  A
C172       C1634   1.450       .  S
Cr173       O176   1.757       .  S
Cr174       O176   1.775       .  S
Cr175       O176   1.761       .  S
O177       Cr195   1.996       .  S
O177        C185   1.264       .  A
O178       Cr195   1.944       .  S
O178        C179   1.243       .  A
C179        O180   1.271       .  A
C179       C1589   1.498       .  S
O180       Cr196   2.063       .  S
O181       Cr196   2.019       .  S
O181        C182   1.272       .  A
C182        O183   1.268       .  A
C182       C1522   1.492       .  S
O183       Cr197   2.006       .  S
O184       Cr197   1.962       .  S
O184        C185   1.253       .  A
C185       C1557   1.475       .  S
O186       Cr195   1.922       .  S
O186        C194   1.250       .  A
O187       Cr195   2.033       .  S
O187        C188   1.270       .  A
C188        O189   1.267       .  A
C188       C1570   1.486       .  S
O189       Cr196   1.992       .  S
O190       Cr196   2.053       .  S
O190        C191   1.276       .  A
C191        O192   1.254       .  A
C191       C1538   1.497       .  S
O192       Cr197   1.950       .  S
O193       Cr197   2.017       .  S
O193        C194   1.268       .  A
C194       C2178   1.464       .  S
Cr195       O198   1.756       .  S
Cr196       O198   1.770       .  S
Cr197       O198   1.758       .  S
O199       Cr217   1.955       .  S
O199        C207   1.252       .  A
O200       Cr217   2.010       .  S
O200        C201   1.268       .  A
C201        O202   1.273       .  A
C201       C1458   1.497       .  S
O202       Cr218   2.023       .  S
O203       Cr218   2.064       .  S
O203        C204   1.273       .  A
C204        O205   1.241       .  A
C204       C1586   1.497       .  S
O205       Cr219   1.941       .  S
O206       Cr219   1.997       .  S
O206        C207   1.263       .  A
C207       C1490   1.465       .  S
O208       Cr217   2.011       .  S
O208        C216   1.267       .  A
O209       Cr217   1.955       .  S
O209        C210   1.257       .  A
C210        O211   1.278       .  A
C210       C1474   1.495       .  S
O211       Cr218   2.053       .  S
O212       Cr218   1.992       .  S
O212        C213   1.267       .  A
C213        O214   1.270       .  A
C213       C1506   1.492       .  S
O214       Cr219   2.036       .  S
O215       Cr219   1.919       .  S
O215        C216   1.250       .  A
C216       C2101   1.464       .  S
Cr217       O220   1.756       .  S
Cr218       O220   1.764       .  S
Cr219       O220   1.759       .  S
O221       Cr239   1.964       .  S
O221        C229   1.256       .  A
O222       Cr239   1.990       .  S
O222        C223   1.260       .  A
C223        O224   1.267       .  A
C223       C1378   1.484       .  S
O224       Cr240   2.018       .  S
O225       Cr240   2.059       .  S
O225        C226   1.277       .  A
C226        O227   1.246       .  A
C226       C1442   1.494       .  S
O227       Cr241   1.944       .  S
O228       Cr241   2.014       .  S
O228        C229   1.269       .  A
C229       C1410   1.479       .  S
O230       Cr239   1.996       .  S
O230        C238   1.261       .  A
O231       Cr239   1.942       .  S
O231        C232   1.255       .  A
C232        O233   1.282       .  A
C232       C1394   1.496       .  S
O233       Cr240   2.066       .  S
O234       Cr240   1.980       .  S
O234        C235   1.263       .  A
C235        O236   1.270       .  A
C235       C1426   1.493       .  S
O236       Cr241   2.030       .  S
O237       Cr241   1.936       .  S
O237        C238   1.251       .  A
C238       C1637   1.436       .  S
Cr239       O242   1.764       .  S
Cr240       O242   1.766       .  S
Cr241       O242   1.758       .  S
O243       Cr261   2.007       .  S
O243        C251   1.266       .  A
O244       Cr261   1.943       .  S
O244        C245   1.243       .  A
C245        O246   1.273       .  A
C245       C1445   1.495       .  S
O246       Cr262   2.059       .  S
O247       Cr262   2.023       .  S
O247        C248   1.272       .  A
C248        O249   1.268       .  A
C248       C1346   1.500       .  S
O249       Cr263   2.013       .  S
O250       Cr263   1.946       .  S
O250        C251   1.253       .  A
C251       C1554   1.466       .  S
O252       Cr261   1.936       .  S
O252        C260   1.251       .  A
O253       Cr261   2.031       .  S
O253        C254   1.271       .  A
C254        O255   1.265       .  A
C254       C1362   1.494       .  S
O255       Cr262   1.982       .  S
O256       Cr262   2.056       .  S
O256        C257   1.278       .  A
C257        O258   1.256       .  A
C257       C1333   1.503       .  S
O258       Cr263   1.951       .  S
O259       Cr263   2.010       .  S
O259        C260   1.265       .  A
C260       C1698   1.469       .  S
Cr261       O264   1.760       .  S
Cr262       O264   1.771       .  S
Cr263       O264   1.760       .  S
O265       Cr283   2.008       .  S
O265        C273   1.268       .  A
O266       Cr283   1.944       .  S
O266        C267   1.244   1_554  A
C267        O268   1.276       .  A
C267       C1314   1.496       .  S
O268       Cr284   2.068       .  S
O269       Cr284   2.032       .  S
O269        C270   1.275       .  A
C270        O271   1.265       .  A
C270       C1250   1.501       .  S
O271       Cr285   2.000       .  S
O272       Cr285   1.954   1_554  S
O272        C273   1.255       .  A
C273       C1282   1.468       .  S
O274       Cr283   1.930   1_556  S
O274        C282   1.247       .  A
O275       Cr283   2.030   1_556  S
O275        C276   1.270       .  A
C276        O277   1.264       .  A
C276       C1301   1.498       .  S
O277       Cr284   1.983       .  S
O278       Cr284   2.057       .  S
O278        C279   1.279       .  A
C279        O280   1.258       .  A
C279       C1266   1.500       .  S
O280       Cr285   1.951       .  S
O281       Cr285   2.007   1_554  S
O281        C282   1.262   1_554  A
C282       C1941   1.439   1_556  S
Cr283       O286   1.761   1_554  S
Cr284       O286   1.768       .  S
Cr285       O286   1.762       .  S
O287       Cr305   1.963   1_556  S
O287        C295   1.255       .  A
O288       Cr305   1.991       .  S
O288        C289   1.262       .  A
C289        O290   1.274       .  A
C289       C1202   1.497       .  S
O290       Cr306   2.036       .  S
O291       Cr306   2.070       .  S
O291        C292   1.276       .  A
C292        O293   1.243   1_554  A
C292       C1317   1.498       .  S
O293       Cr307   1.940   1_556  S
O294       Cr307   1.997   1_556  S
O294        C295   1.265       .  A
C295       C1493   1.467       .  S
O296       Cr305   2.007   1_556  S
O296        C304   1.263   1_556  A
O297       Cr305   1.956       .  S
O297        C298   1.258       .  A
C298        O299   1.281       .  A
C298       C1218   1.496       .  S
O299       Cr306   2.060       .  S
O300       Cr306   1.995       .  S
O300        C301   1.268       .  A
C301        O302   1.268       .  A
C301       C1237   1.501       .  S
O302       Cr307   2.023       .  S
O303       Cr307   1.924       .  S
O303        C304   1.249       .  A
C304       C2021   1.457   1_554  S
Cr305       O308   1.763       .  S
Cr306       O308   1.765       .  S
Cr307       O308   1.754       .  S
O309       Cr327   1.963       .  S
O309        C317   1.256       .  A
O310       Cr327   2.000       .  S
O310        C311   1.265       .  A
C311        O312   1.272       .  A
C311       C1141   1.488       .  S
O312       Cr328   2.019       .  S
O313       Cr328   2.070       .  S
O313        C314   1.275       .  A
C314        O315   1.241       .  A
C314       C1186   1.501       .  S
O315       Cr329   1.938       .  S
O316       Cr329   2.011       .  S
O316        C317   1.267       .  A
C317       C1413   1.473       .  S
O318       Cr327   2.007       .  S
O318        C326   1.264       .  A
O319       Cr327   1.945       .  S
O319        C320   1.256       .  A
C320        O321   1.278       .  A
C320       C1154   1.489       .  S
O321       Cr328   2.050       .  S
O322       Cr328   1.977       .  S
O322        C323   1.262       .  A
C323        O324   1.273       .  A
C323       C1173   1.506       .  S
O324       Cr329   2.037       .  S
O325       Cr329   1.922       .  S
O325        C326   1.249       .  A
C326       C1842   1.461       .  S
Cr327       O330   1.762       .  S
Cr328       O330   1.771       .  S
Cr329       O330   1.754       .  S
O331       Cr349   2.007       .  S
O331        C339   1.266       .  A
O332       Cr349   1.944       .  S
O332        C333   1.245       .  A
C333        O334   1.278       .  A
C333       C1189   1.499       .  S
O334       Cr350   2.066       .  S
O335       Cr350   2.013       .  S
O335        C336   1.269       .  A
C336        O337   1.267       .  A
C336       C1090   1.490       .  S
O337       Cr351   2.008       .  S
O338       Cr351   1.951       .  S
O338        C339   1.253       .  A
C339       C1285   1.467       .  S
O340       Cr349   1.929       .  S
O340        C348   1.249       .  A
O341       Cr349   2.019       .  S
O341        C342   1.269       .  A
C342        O343   1.265       .  A
C342       C1122   1.490       .  S
O343       Cr350   1.986       .  S
O344       Cr350   2.066       .  S
O344        C345   1.280       .  A
C345        O346   1.255       .  A
C345       C1106   1.497       .  S
O346       Cr351   1.944       .  S
O347       Cr351   2.012       .  S
O347        C348   1.265       .  A
C348       C1781   1.472       .  S
Cr349       O352   1.755       .  S
Cr350       O352   1.769       .  S
Cr351       O352   1.758       .  S
O353       Cr371   1.991       .  S
O353        C361   1.265       .  A
O354       Cr371   1.923   1_554  S
O354        C355   1.243       .  A
C355        O356   1.274       .  A
C355       C1077   1.475       .  S
O356       Cr372   2.036       .  S
O357       Cr372   2.070       .  S
O357        C358   1.284       .  A
C358        O359   1.259   1_554  A
C358       C1253   1.503       .  S
O359       Cr373   1.965   1_556  S
O360       Cr373   1.985   1_556  S
O360        C361   1.263       .  A
C361       C1061   1.465       .  S
O362       Cr371   1.945       .  S
O362        C370   1.241       .  A
O363       Cr371   2.010   1_554  S
O363        C364   1.273       .  A
C364        O365   1.277       .  A
C364       C1829   1.518   1_655  S
O365       Cr372   2.025       .  S
O366       Cr372   2.013       .  S
O366        C367   1.262       .  A
C367        O368   1.255       .  A
C367       C1170   1.493       .  S
O368       Cr373   1.981       .  S
O369       Cr373   1.997       .  S
O369        C370   1.261   1_554  A
C370       C1042   1.467       .  S
Cr371       O374   1.771   1_556  S
Cr372       O374   1.774       .  S
Cr373       O374   1.780       .  S
O375       Cr393   1.955   1_554  S
O375        C383   1.254       .  A
O376       Cr393   2.014       .  S
O376        C377   1.271       .  A
C377        O378   1.271       .  A
C377       C1205   1.500       .  S
O378       Cr394   2.017       .  S
O379       Cr394   2.056       .  S
O379        C380   1.271       .  A
C380        O381   1.243   1_556  A
C380       C1074   1.496   1_556  S
O381       Cr395   1.946       .  S
O382       Cr395   2.006       .  S
O382        C383   1.268       .  A
C383       C1026   1.472       .  S
O384       Cr393   2.016   1_554  S
O384        C392   1.267   1_554  A
O385       Cr393   1.954       .  S
O385        C386   1.254       .  A
C386        O387   1.276       .  A
C386       C1573   1.485       .  S
O387       Cr394   2.051       .  S
O388       Cr394   1.976       .  S
O388        C389   1.265       .  A
C389        O390   1.273       .  A
C389       C2162   1.495   1_455  S
O390       Cr395   2.034   1_556  S
O391       Cr395   1.928   1_556  S
O391        C392   1.246       .  A
C392       C1010   1.471       .  S
Cr393       O396   1.764       .  S
Cr394       O396   1.776       .  S
Cr395       O396   1.759   1_554  S
O397       Cr415   1.959       .  S
O397        C405   1.255       .  A
O398       Cr415   2.002       .  S
O398        C399   1.265       .  A
C399        O400   1.275       .  A
C399       C1813   1.502       .  S
O400       Cr416   2.033       .  S
O401       Cr416   2.061       .  S
O401        C402   1.275       .  A
C402        O403   1.245       .  A
C402        C994   1.491       .  S
O403       Cr417   1.941       .  S
O404       Cr417   2.008       .  S
O404        C405   1.266       .  A
C405       C1029   1.471       .  S
O406       Cr415   2.012       .  S
O406        C414   1.265       .  A
O407       Cr415   1.952       .  S
O407        C408   1.258       .  A
C408        O409   1.277       .  A
C408       C1717   1.495       .  S
O409       Cr416   2.050       .  S
O410       Cr416   1.992       .  S
O410        C411   1.266       .  A
C411        O412   1.269       .  A
C411       C1330   1.500       .  S
O412       Cr417   2.027       .  S
O413       Cr417   1.935       .  S
O413        C414   1.251       .  A
C414        C978   1.465       .  S
Cr415       O418   1.761       .  S
Cr416       O418   1.768       .  S
Cr417       O418   1.759       .  S
O419       Cr437   2.007       .  S
O419        C427   1.266       .  A
O420       Cr437   1.939       .  S
O420        C421   1.241       .  A
C421        O422   1.275       .  A
C421        C997   1.494       .  S
O422       Cr438   2.063       .  S
O423       Cr438   2.011       .  S
O423        C424   1.269       .  A
C424        O425   1.265       .  A
C424       C1749   1.484       .  S
O425       Cr439   1.999       .  S
O426       Cr439   1.964       .  S
O426        C427   1.254       .  A
C427        C965   1.477       .  S
O428       Cr437   1.917       .  S
O428        C436   1.249       .  A
O429       Cr437   2.033       .  S
O429        C430   1.271       .  A
C430        O431   1.267       .  A
C430       C1221   1.498       .  S
O431       Cr438   1.988       .  S
O432       Cr438   2.057       .  S
O432        C433   1.279       .  A
C433        O434   1.259       .  A
C433       C2034   1.504       .  S
O434       Cr439   1.955       .  S
O435       Cr439   2.014       .  S
O435        C436   1.266       .  A
C436        C946   1.461       .  S
Cr437       O440   1.753       .  S
Cr438       O440   1.770       .  S
Cr439       O440   1.760       .  S
O441       Cr459   1.966       .  S
O441        C449   1.255       .  A
O442       Cr459   2.003       .  S
O442        C443   1.266       .  A
C443        O444   1.271       .  A
C443       C1381   1.488       .  S
O444       Cr460   2.017       .  S
O445       Cr460   2.065       .  S
O445        C446   1.271       .  A
C446        O447   1.243       .  A
C446        C930   1.507       .  S
O447       Cr461   1.942       .  S
O448       Cr461   2.002       .  S
O448        C449   1.266       .  A
C449        C914   1.477       .  S
O450       Cr459   2.009       .  S
O450        C458   1.266       .  A
O451       Cr459   1.956       .  S
O451        C452   1.258       .  A
C452        O453   1.276       .  A
C452       C1125   1.493       .  S
O453       Cr460   2.051       .  S
O454       Cr460   1.989       .  S
O454        C455   1.267       .  A
C455        O456   1.273       .  A
C455       C1765   1.500       .  S
O456       Cr461   2.035       .  S
O457       Cr461   1.929       .  S
O457        C458   1.249       .  A
C458        C901   1.448       .  S
Cr459       O462   1.764       .  S
Cr460       O462   1.776       .  S
Cr461       O462   1.757       .  S
O463       Cr481   2.003       .  S
O463        C471   1.265       .  A
O464       Cr481   1.940       .  S
O464        C465   1.244       .  A
C465        O466   1.275       .  A
C465        C933   1.508       .  S
O466       Cr482   2.069       .  S
O467       Cr482   2.019       .  S
O467        C468   1.271       .  A
C468        O469   1.268       .  A
C468       C1349   1.497       .  S
O469       Cr483   2.013       .  S
O470       Cr483   1.955       .  S
O470        C471   1.255       .  A
C471        C962   1.467       .  S
O472       Cr481   1.917       .  S
O472        C480   1.244       .  A
O473       Cr481   2.030       .  S
O473        C474   1.270       .  A
C474        O475   1.263       .  A
C474       C2082   1.497       .  S
O475       Cr482   1.978       .  S
O476       Cr482   2.062       .  S
O476        C477   1.279       .  A
C477        O478   1.253       .  A
C477       C1509   1.495       .  S
O478       Cr483   1.947       .  S
O479       Cr483   2.007       .  S
O479        C480   1.267       .  A
C480        C885   1.460       .  S
Cr481       O484   1.759       .  S
Cr482       O484   1.767       .  S
Cr483       O484   1.763       .  S
O485       Cr503   1.990       .  S
O485        C493   1.259       .  A
O486       Cr503   1.939       .  S
O486        C487   1.246       .  A
C487        O488   1.281       .  A
C487        C866   1.508       .  S
O488       Cr504   2.081       .  S
O489       Cr504   2.016       .  S
O489        C490   1.270       .  A
C490        O491   1.266       .  A
C490       C2149   1.492       .  S
O491       Cr505   2.007       .  S
O492       Cr505   1.975       .  S
O492        C493   1.257       .  A
C493       C1058   1.481       .  S
O494       Cr503   1.924       .  S
O494        C502   1.250       .  A
O495       Cr503   2.014       .  S
O495        C496   1.265       .  A
C496        O497   1.266       .  A
C496       C1397   1.495       .  S
O497       Cr504   1.999       .  S
O498       Cr504   2.066       .  S
O498        C499   1.282       .  A
C499        O500   1.257       .  A
C499       C1650   1.506       .  S
O500       Cr505   1.950       .  S
O501       Cr505   2.027       .  S
O501        C502   1.270       .  A
C502        C850   1.475       .  S
Cr503       O506   1.751       .  S
Cr504       O506   1.767       .  S
Cr505       O506   1.763       .  S
O507       Cr525   1.957       .  S
O507        C515   1.254       .  A
O508       Cr525   2.003       .  S
O508        C509   1.266       .  A
C509        O510   1.271       .  A
C509       C2066   1.490       .  S
O510       Cr526   2.017       .  S
O511       Cr526   2.067       .  S
O511        C512   1.273       .  A
C512        O513   1.243       .  A
C512        C869   1.508       .  S
O513       Cr527   1.941       .  S
O514       Cr527   2.014       .  S
O514        C515   1.269       .  A
C515        C917   1.475       .  S
O516       Cr525   2.010       .  S
O516        C524   1.264       .  A
O517       Cr525   1.946       .  S
O517        C518   1.257       .  A
C518        O519   1.278       .  A
C518       C1973   1.507       .  S
O519       Cr526   2.060       .  S
O520       Cr526   1.969       .  S
O520        C521   1.263       .  A
C521        O522   1.274       .  A
C521       C1269   1.494       .  S
O522       Cr527   2.044       .  S
O523       Cr527   1.933       .  S
O523        C524   1.249       .  A
C524        C834   1.448       .  S
Cr525       O528   1.760       .  S
Cr526       O528   1.775       .  S
Cr527       O528   1.761       .  S
O529       Cr547   1.967       .  S
O529        C537   1.257       .  A
O530       Cr547   2.005       .  S
O530        C531   1.265       .  A
C531        O532   1.271       .  A
C531       C1138   1.492       .  S
O532       Cr548   2.019       .  S
O533       Cr548   2.071       .  S
O533        C534   1.276       .  A
C534        O535   1.242       .  A
C534        C818   1.497       .  S
O535       Cr549   1.941       .  S
O536       Cr549   2.014       .  S
O536        C537   1.268       .  A
C537        C802   1.481       .  S
O538       Cr547   2.009       .  S
O538        C546   1.265       .  A
O539       Cr547   1.956       .  S
O539        C540   1.259       .  A
C540        O541   1.279       .  A
C540       C1365   1.501       .  S
O541       Cr548   2.061       .  S
O542       Cr548   1.986       .  S
O542        C543   1.266       .  A
C543        O544   1.270       .  A
C543       C1669   1.499       .  S
O544       Cr549   2.032       .  S
O545       Cr549   1.932       .  S
O545        C546   1.250       .  A
C546        C981   1.470       .  S
Cr547       O550   1.759       .  S
Cr548       O550   1.769       .  S
Cr549       O550   1.754       .  S
O551       Cr569   1.999       .  S
O551        C559   1.262       .  A
O552       Cr569   1.948       .  S
O552        C553   1.248       .  A
C553        O554   1.278       .  A
C553        C821   1.491       .  S
O554       Cr570   2.066       .  S
O555       Cr570   2.012       .  S
O555        C556   1.269       .  A
C556        O557   1.267       .  A
C556       C1093   1.492       .  S
O557       Cr571   2.010       .  S
O558       Cr571   1.965       .  S
O558        C559   1.257       .  A
C559        C786   1.477       .  S
O560       Cr569   1.932       .  S
O560        C568   1.251       .  A
O561       Cr569   2.014       .  S
O561        C562   1.265       .  A
C562        O563   1.266       .  A
C562       C2005   1.492       .  S
O563       Cr570   1.991       .  S
O564       Cr570   2.062       .  S
O564        C565   1.280       .  A
C565        O566   1.254       .  A
C565       C1234   1.500       .  S
O566       Cr571   1.951       .  S
O567       Cr571   2.011       .  S
O567        C568   1.265       .  A
C568        C949   1.466       .  S
Cr569       O572   1.757       .  S
Cr570       O572   1.770       .  S
Cr571       O572   1.763       .  S
O573       Cr591   1.972   1_554  S
O573        C581   1.256       .  A
O574       Cr591   2.002       .  S
O574        C575   1.267       .  A
C575        O576   1.269       .  A
C575       C1986   1.484       .  S
O576       Cr592   2.009       .  S
O577       Cr592   2.057       .  S
O577        C578   1.269       .  A
C578        O579   1.240   1_556  A
C578        C770   1.492       .  S
O579       Cr593   1.943       .  S
O580       Cr593   2.002       .  S
O580        C581   1.263       .  A
C581        C805   1.479       .  S
O582       Cr591   2.007   1_554  S
O582        C590   1.268       .  A
O583       Cr591   1.957       .  S
O583        C584   1.256       .  A
C584        O585   1.275       .  A
C584       C2213   1.487       .  S
O585       Cr592   2.044       .  S
O586       Cr592   1.979       .  S
O586        C587   1.265       .  A
C587        O588   1.272       .  A
C587       C1541   1.495       .  S
O588       Cr593   2.045   1_556  S
O589       Cr593   1.933   1_556  S
O589        C590   1.252   1_556  A
C590       C1013   1.450       .  S
Cr591       O594   1.758       .  S
Cr592       O594   1.778       .  S
Cr593       O594   1.758   1_554  S
O595       Cr613   2.001   1_556  S
O595        C603   1.260       .  A
O596       Cr613   1.939   1_556  S
O596        C597   1.236   1_556  A
C597        O598   1.272       .  A
C597        C773   1.497       .  S
O598       Cr614   2.066       .  S
O599       Cr614   2.015       .  S
O599        C600   1.272       .  A
C600        O601   1.271       .  A
C600       C1909   1.500       .  S
O601       Cr615   2.016       .  S
O602       Cr615   1.951   1_556  S
O602        C603   1.251       .  A
C603        C754   1.473       .  S
O604       Cr613   1.923       .  S
O604        C612   1.247       .  A
O605       Cr613   2.038       .  S
O605        C606   1.270       .  A
C606        O607   1.266       .  A
C606       C1157   1.495   1_455  S
O607       Cr614   1.986       .  S
O608       Cr614   2.051       .  S
O608        C609   1.276       .  A
C609        O610   1.250       .  A
C609       C1877   1.494       .  S
O610       Cr615   1.938       .  S
O611       Cr615   2.009   1_556  S
O611        C612   1.271   1_556  A
C612       C1045   1.459       .  S
Cr613       O616   1.756       .  S
Cr614       O616   1.776       .  S
Cr615       O616   1.749       .  S
O617       Cr635   2.005       .  S
O617        C625   1.262       .  A
O618       Cr635   1.935       .  S
O618        C619   1.242       .  A
C619        O620   1.273       .  A
C619        C738   1.501       .  S
O620       Cr636   2.069       .  S
O621       Cr636   2.023       .  S
O621        C622   1.273       .  A
C622        O623   1.268       .  A
C622       C1685   1.502       .  S
O623       Cr637   2.008       .  S
O624       Cr637   1.949       .  S
O624        C625   1.252       .  A
C625        C789   1.466       .  S
O626       Cr635   1.919       .  S
O626        C634   1.247       .  A
O627       Cr635   2.030       .  S
O627        C628   1.272       .  A
C628        O629   1.264       .  A
C628       C1477   1.499       .  S
O629       Cr636   1.983       .  S
O630       Cr636   2.054       .  S
O630        C631   1.277       .  A
C631        O632   1.253       .  A
C631       C2130   1.492       .  S
O632       Cr637   1.949       .  S
O633       Cr637   1.999       .  S
O633        C634   1.264       .  A
C634        C882   1.438       .  S
Cr635       O638   1.760       .  S
Cr636       O638   1.772       .  S
Cr637       O638   1.756       .  S
O639       Cr657   1.965       .  S
O639        C647   1.257       .  A
O640       Cr657   2.009       .  S
O640        C641   1.269       .  A
C641        O642   1.269       .  A
C641       C1618   1.491       .  S
O642       Cr658   2.012       .  S
O643       Cr658   2.055       .  S
O643        C644   1.271       .  A
C644        O645   1.244       .  A
C644        C741   1.499       .  S
O645       Cr659   1.942       .  S
O646       Cr659   2.007       .  S
O646        C647   1.266       .  A
C647        C722   1.476       .  S
O648       Cr657   2.019       .  S
O648        C656   1.269       .  A
O649       Cr657   1.954       .  S
O649        C650   1.256       .  A
C650        O651   1.276       .  A
C650       C1797   1.490       .  S
O651       Cr658   2.052       .  S
O652       Cr658   1.977       .  S
O652        C653   1.263       .  A
C653        O654   1.272       .  A
C653       C1109   1.499       .  S
O654       Cr659   2.034       .  S
O655       Cr659   1.925       .  S
O655        C656   1.246       .  A
C656        C898   1.469       .  S
Cr657       O660   1.759       .  S
Cr658       O660   1.769       .  S
Cr659       O660   1.757       .  S
O661       Cr679   1.969       .  S
O661        C669   1.259       .  A
O662       Cr679   2.003       .  S
O662        C663   1.265       .  A
C663        O664   1.274       .  A
C663       C1461   1.498       .  S
O664       Cr680   2.026       .  S
O665       Cr680   2.064       .  S
O665        C666   1.273       .  A
C666        O667   1.243       .  A
C666        C706   1.501       .  S
O667       Cr681   1.938       .  S
O668       Cr681   2.007       .  S
O668        C669   1.265       .  A
C669        C725   1.479       .  S
O670       Cr679   2.013       .  S
O670        C678   1.266       .  A
O671       Cr679   1.950       .  S
O671        C672   1.259       .  A
C672        O673   1.277       .  A
C672       C1298   1.501       .  S
O673       Cr680   2.050       .  S
O674       Cr680   1.977       .  S
O674        C675   1.263       .  A
C675        O676   1.271       .  A
C675       C1925   1.506       .  S
O676       Cr681   2.036       .  S
O677       Cr681   1.934       .  S
O677        C678   1.249       .  A
C678        C837   1.458       .  S
Cr679       O682   1.759       .  S
Cr680       O682   1.775       .  S
Cr681       O682   1.758       .  S
O683       Cr701   2.005       .  S
O683        C691   1.264       .  A
O684       Cr701   1.942       .  S
O684        C685   1.245       .  A
C685        O686   1.271       .  A
C685        C709   1.498       .  S
O686       Cr702   2.052       .  S
O687       Cr702   2.024       .  S
O687        C688   1.271       .  A
C688        O689   1.265       .  A
C688       C1525   1.496       .  S
O689       Cr703   2.000       .  S
O690       Cr703   1.960       .  S
O690        C691   1.255       .  A
C691        C757   1.472       .  S
O692       Cr701   1.932       .  S
O692        C700   1.251       .  A
O693       Cr701   2.029       .  S
O693        C694   1.270       .  A
C694        O695   1.269       .  A
C694       C1605   1.509       .  S
O695       Cr702   1.994       .  S
O696       Cr702   2.046       .  S
O696        C697   1.277       .  A
C697        O698   1.257       .  A
C697       C1429   1.486       .  S
O698       Cr703   1.951       .  S
O699       Cr703   2.012       .  S
O699        C700   1.266       .  A
C700        C853   1.459       .  S
Cr701       O704   1.758       .  S
Cr702       O704   1.773       .  S
Cr703       O704   1.763       .  S
C705        C706   1.414       .  A
C705        C710   1.406       .  A
C705        H712   1.083       .  S
C706        C707   1.416       .  A
C707        C708   1.408       .  A
C707        C714   1.508       .  S
C708        C709   1.413       .  A
C708        H713   1.083       .  S
C709        C710   1.416       .  A
C710        C711   1.509       .  S
C711        H715   1.111       .  S
C711        H716   1.107       .  S
C711        H717   1.110       .  S
C714        H718   1.110       .  S
C714        H719   1.107       .  S
C714        H720   1.111       .  S
C721        C722   1.404       .  A
C721        C726   1.402       .  A
C721        H728   1.086       .  S
C722        C723   1.414       .  A
C723        C724   1.401       .  A
C723        C730   1.508       .  S
C724        C725   1.405       .  A
C724        H729   1.085       .  S
C725        C726   1.416       .  A
C726        C727   1.509       .  S
C727        H731   1.111       .  S
C727        H732   1.110       .  S
C727        H733   1.109       .  S
C730        H734   1.110       .  S
C730        H735   1.109       .  S
C730        H736   1.111       .  S
C737        C738   1.414       .  A
C737        C742   1.406   1_545  A
C737        H744   1.083       .  S
C738        C739   1.415   1_545  A
C739        C740   1.409       .  A
C739        C746   1.507       .  S
C740        C741   1.414       .  A
C740        H745   1.082       .  S
C741        C742   1.416       .  A
C742        C743   1.509       .  S
C743        H747   1.111   1_565  S
C743        H748   1.110   1_565  S
C743        H749   1.105       .  S
C746        H750   1.107   1_565  S
C746        H751   1.110       .  S
C746        H752   1.111       .  S
C753        C754   1.405       .  A
C753        C758   1.398       .  A
C753        H760   1.083       .  S
C754        C755   1.413       .  A
C755        C756   1.400       .  A
C755        C762   1.508       .  S
C756        C757   1.405       .  A
C756        H761   1.084       .  S
C757        C758   1.412       .  A
C758        C759   1.509       .  S
C759        H763   1.111       .  S
C759        H764   1.109       .  S
C759        H765   1.110       .  S
C762        H766   1.109       .  S
C762        H767   1.111       .  S
C762        H768   1.111       .  S
C769        C770   1.417   1_554  A
C769        C774   1.404   1_655  A
C769        H776   1.083       .  S
C770        C771   1.408       .  A
C771        C772   1.405   1_655  A
C771        C778   1.508       .  S
C772        C773   1.420   1_556  A
C772        H777   1.082       .  S
C773        C774   1.408       .  A
C774        C775   1.508       .  S
C775        H779   1.111       .  S
C775        H780   1.109       .  S
C775        H781   1.110       .  S
C778        H782   1.110       .  S
C778        H783   1.109       .  S
C778        H784   1.111       .  S
C785        C786   1.409       .  A
C785        C790   1.403       .  A
C785        H792   1.077       .  S
C786        C787   1.417       .  A
C787        C788   1.396       .  A
C787        C794   1.508       .  S
C788        C789   1.399       .  A
C788        H793   1.086       .  S
C789        C790   1.409       .  A
C790        C791   1.507       .  S
C791        H795   1.110       .  S
C791        H796   1.110       .  S
C791        H797   1.111       .  S
C794        H798   1.109       .  S
C794        H799   1.106       .  S
C794        H800   1.111       .  S
C801        C802   1.403       .  A
C801        C806   1.402       .  A
C801        H808   1.085       .  S
C802        C803   1.418       .  A
C803        C804   1.404       .  A
C803        C810   1.509       .  S
C804        C805   1.403       .  A
C804        H809   1.085       .  S
C805        C806   1.416       .  A
C806        C807   1.508       .  S
C807        H811   1.111       .  S
C807        H812   1.111       .  S
C807        H813   1.110       .  S
C810        H814   1.111       .  S
C810        H815   1.110       .  S
C810        H816   1.111       .  S
C817        C818   1.408       .  A
C817        C822   1.410       .  A
C817        H824   1.083       .  S
C818        C819   1.422       .  A
C819        C820   1.409       .  A
C819        C826   1.509       .  S
C820        C821   1.404       .  A
C820        H825   1.084       .  S
C821        C822   1.417       .  A
C822        C823   1.509       .  S
C823        H827   1.111       .  S
C823        H828   1.110       .  S
C823        H829   1.104       .  S
C826        H830   1.109       .  S
C826        H831   1.110       .  S
C826        H832   1.111       .  S
C833        C834   1.396       .  A
C833        C838   1.394       .  A
C833        H840   1.084       .  S
C834        C835   1.408       .  A
C835        C836   1.398       .  A
C835        C842   1.507       .  S
C836        C837   1.401       .  A
C836        H841   1.084       .  S
C837        C838   1.415       .  A
C838        C839   1.511       .  S
C839        H843   1.111       .  S
C839        H844   1.109       .  S
C839        H845   1.110       .  S
C842        H846   1.110       .  S
C842        H847   1.110       .  S
C842        H848   1.111       .  S
C849        C850   1.413       .  A
C849        C854   1.392       .  A
C849        H856   1.083       .  S
C850        C851   1.413   1_655  A
C851        C852   1.397       .  A
C851        C858   1.508       .  S
C852        C853   1.405       .  A
C852        H857   1.084       .  S
C853        C854   1.404   1_455  A
C854        C855   1.509       .  S
C855        H859   1.111       .  S
C855        H860   1.110       .  S
C855        H861   1.110   1_655  S
C858        H862   1.110   1_455  S
C858        H863   1.111       .  S
C858        H864   1.111       .  S
C865        C866   1.418       .  A
C865        C870   1.412       .  A
C865        H872   1.084       .  S
C866        C867   1.415       .  A
C867        C868   1.410       .  A
C867        C874   1.506       .  S
C868        C869   1.416       .  A
C868        H873   1.084       .  S
C869        C870   1.416       .  A
C870        C871   1.508       .  S
C871        H875   1.111       .  S
C871        H876   1.110       .  S
C871        H877   1.109       .  S
C874        H878   1.107       .  S
C874        H879   1.110       .  S
C874        H880   1.111       .  S
C881        C882   1.391       .  A
C881        C886   1.390       .  A
C881        H888   1.085       .  S
C882        C883   1.408       .  A
C883        C884   1.390       .  A
C883        C890   1.509       .  S
C884        C885   1.400       .  A
C884        H889   1.084       .  S
C885        C886   1.424       .  A
C886        C887   1.511       .  S
C887        H891   1.111       .  S
C887        H892   1.110       .  S
C887        H893   1.108       .  S
C890        H894   1.109       .  S
C890        H895   1.110       .  S
C890        H896   1.111       .  S
C897        C898   1.402       .  A
C897        C902   1.397       .  A
C897        H904   1.084       .  S
C898        C899   1.424       .  A
C899        C900   1.392       .  A
C899        C906   1.509       .  S
C900        C901   1.391       .  A
C900        H905   1.086       .  S
C901        C902   1.410       .  A
C902        C903   1.508       .  S
C903        H907   1.111       .  S
C903        H908   1.111       .  S
C903        H909   1.109       .  S
C906        H910   1.107       .  S
C906        H911   1.109       .  S
C906        H912   1.111       .  S
C913        C914   1.402       .  A
C913        C918   1.399       .  A
C913        H920   1.085       .  S
C914        C915   1.418       .  A
C915        C916   1.403       .  A
C915        C922   1.508       .  S
C916        C917   1.401       .  A
C916        H921   1.085       .  S
C917        C918   1.416       .  A
C918        C919   1.509       .  S
C919        H923   1.111       .  S
C919        H924   1.110       .  S
C919        H925   1.110       .  S
C922        H926   1.110       .  S
C922        H927   1.110       .  S
C922        H928   1.111       .  S
C929        C930   1.415       .  A
C929        C934   1.408       .  A
C929        H936   1.084       .  S
C930        C931   1.416       .  A
C931        C932   1.412       .  A
C931        C938   1.507       .  S
C932        C933   1.417       .  A
C932        H937   1.084       .  S
C933        C934   1.417       .  A
C934        C935   1.508       .  S
C935        H939   1.111       .  S
C935        H940   1.107       .  S
C935        H941   1.110       .  S
C938        H942   1.110       .  S
C938        H943   1.108       .  S
C938        H944   1.111       .  S
C945        C946   1.407       .  A
C945        C950   1.391       .  A
C945        H952   1.085       .  S
C946        C947   1.407       .  A
C947        C948   1.393       .  A
C947        C954   1.509       .  S
C948        C949   1.409       .  A
C948        H953   1.083       .  S
C949        C950   1.410       .  A
C950        C951   1.508       .  S
C951        H955   1.111       .  S
C951        H956   1.110       .  S
C951        H957   1.109       .  S
C954        H958   1.110       .  S
C954        H959   1.110       .  S
C954        H960   1.111       .  S
C961        C962   1.400       .  A
C961        C966   1.400       .  A
C961        H968   1.085       .  S
C962        C963   1.412       .  A
C963        C964   1.399       .  A
C963        C970   1.509       .  S
C964        C965   1.404       .  A
C964        H969   1.085       .  S
C965        C966   1.419       .  A
C966        C967   1.509       .  S
C967        H971   1.111       .  S
C967        H972   1.110       .  S
C967        H973   1.111       .  S
C970        H974   1.109       .  S
C970        H975   1.111       .  S
C970        H976   1.111       .  S
C977        C978   1.406       .  A
C977        C982   1.394       .  A
C977        H984   1.084       .  S
C978        C979   1.409   1_455  A
C979        C980   1.395       .  A
C979        C986   1.509       .  S
C980        C981   1.410       .  A
C980        H985   1.083       .  S
C981        C982   1.412   1_655  A
C982        C983   1.509       .  S
C983        H987   1.111       .  S
C983        H988   1.111       .  S
C983        H989   1.110       .  S
C986        H990   1.110       .  S
C986        H991   1.110       .  S
C986        H992   1.111       .  S
C993        C994   1.405       .  A
C993        C998   1.409       .  A
C993       H1000   1.083       .  S
C994        C995   1.419       .  A
C995        C996   1.407       .  A
C995       C1002   1.509       .  S
C996        C997   1.405       .  A
C996       H1001   1.083       .  S
C997        C998   1.423       .  A
C998        C999   1.510       .  S
C999       H1003   1.111       .  S
C999       H1004   1.110       .  S
C999       H1005   1.109       .  S
C1002      H1006   1.108       .  S
C1002      H1007   1.110       .  S
C1002      H1008   1.111       .  S
C1009      C1010   1.403   1_554  A
C1009      C1014   1.398       .  A
C1009      H1016   1.084       .  S
C1010      C1011   1.423   1_455  A
C1011      C1012   1.392       .  A
C1011      C1018   1.508       .  S
C1012      C1013   1.391   1_556  A
C1012      H1017   1.085       .  S
C1013      C1014   1.410   1_655  A
C1014      C1015   1.508       .  S
C1015      H1019   1.111       .  S
C1015      H1020   1.111   1_455  S
C1015      H1021   1.109       .  S
C1018      H1022   1.108       .  S
C1018      H1023   1.110       .  S
C1018      H1024   1.111       .  S
C1025      C1026   1.400       .  A
C1025      C1030   1.396       .  A
C1025      H1032   1.083       .  S
C1026      C1027   1.417       .  A
C1027      C1028   1.402       .  A
C1027      C1034   1.509       .  S
C1028      C1029   1.403       .  A
C1028      H1033   1.084       .  S
C1029      C1030   1.416       .  A
C1030      C1031   1.509       .  S
C1031      H1035   1.111       .  S
C1031      H1036   1.111       .  S
C1031      H1037   1.110       .  S
C1034      H1038   1.110       .  S
C1034      H1039   1.107       .  S
C1034      H1040   1.111       .  S
C1041      C1042   1.397   1_554  A
C1041      C1046   1.394       .  A
C1041      H1048   1.084       .  S
C1042      C1043   1.429       .  A
C1043      C1044   1.388   1_655  A
C1043      C1050   1.515       .  S
C1044      C1045   1.391   1_556  A
C1044      H1049   1.084       .  S
C1045      C1046   1.418   1_455  A
C1046      C1047   1.506       .  S
C1047      H1051   1.111       .  S
C1047      H1052   1.106       .  S
C1047      H1053   1.109       .  S
C1050      H1054   1.110   1_655  S
C1050      H1055   1.111       .  S
C1050      H1056   1.111   1_655  S
C1057      C1058   1.410       .  A
C1057      C1062   1.404       .  A
C1057      H1064   1.084       .  S
C1058      C1059   1.421       .  A
C1059      C1060   1.394       .  A
C1059      C1066   1.512       .  S
C1060      C1061   1.399       .  A
C1060      H1065   1.086       .  S
C1061      C1062   1.407       .  A
C1062      C1063   1.504       .  S
C1063      H1067   1.111       .  S
C1063      H1068   1.105       .  S
C1063      H1069   1.111       .  S
C1066      H1070   1.110       .  S
C1066      H1071   1.111       .  S
C1066      H1072   1.111       .  S
C1073      C1074   1.406   1_556  A
C1073      C1078   1.407   1_445  A
C1073      H1080   1.084       .  S
C1074      C1075   1.420   1_545  A
C1075      C1076   1.411   1_455  A
C1075      C1082   1.509   1_565  S
C1076      C1077   1.406       .  A
C1076      H1081   1.085       .  S
C1077      C1078   1.416   1_554  A
C1078      C1079   1.505       .  S
C1079      H1083   1.111       .  S
C1079      H1084   1.110       .  S
C1079      H1085   1.108       .  S
C1082      H1086   1.108       .  S
C1082      H1087   1.111   1_545  S
C1082      H1088   1.111   1_545  S
C1089      C1090   1.402       .  A
C1089      C1094   1.409   1_565  A
C1089      H1096   1.084       .  S
C1090      C1091   1.419       .  A
C1091      C1092   1.413   1_565  A
C1091      C1098   1.506       .  S
C1092      C1093   1.405       .  A
C1092      H1097   1.084       .  S
C1093      C1094   1.417       .  A
C1094      C1095   1.505       .  S
C1095      H1099   1.110       .  S
C1095      H1100   1.110       .  S
C1095      H1101   1.107       .  S
C1098      H1102   1.110       .  S
C1098      H1103   1.108       .  S
C1098      H1104   1.110       .  S
C1105      C1106   1.407       .  A
C1105      C1110   1.401       .  A
C1105      H1112   1.085       .  S
C1106      C1107   1.413       .  A
C1107      C1108   1.416       .  A
C1107      C1114   1.503       .  S
C1108      C1109   1.412       .  A
C1108      H1113   1.083       .  S
C1109      C1110   1.418       .  A
C1110      C1111   1.510       .  S
C1111      H1115   1.111       .  S
C1111      H1116   1.110       .  S
C1111      H1117   1.109       .  S
C1114      H1118   1.110       .  S
C1114      H1119   1.109       .  S
C1114      H1120   1.111       .  S
C1121      C1122   1.407       .  A
C1121      C1126   1.408       .  A
C1121      H1128   1.085       .  S
C1122      C1123   1.414       .  A
C1123      C1124   1.405       .  A
C1123      C1130   1.508       .  S
C1124      C1125   1.409       .  A
C1124      H1129   1.085       .  S
C1125      C1126   1.418       .  A
C1126      C1127   1.504       .  S
C1127      H1131   1.111       .  S
C1127      H1132   1.101       .  S
C1127      H1133   1.111       .  S
C1130      H1134   1.107       .  S
C1130      H1135   1.111       .  S
C1130      H1136   1.111       .  S
C1137      C1138   1.407       .  A
C1137      C1142   1.413       .  A
C1137      H1144   1.084       .  S
C1138      C1139   1.414       .  A
C1139      C1140   1.411       .  A
C1139      C1146   1.503       .  S
C1140      C1141   1.405       .  A
C1140      H1145   1.084       .  S
C1141      C1142   1.414       .  A
C1142      C1143   1.506       .  S
C1143      H1147   1.111       .  S
C1143      H1148   1.111       .  S
C1143      H1149   1.110       .  S
C1146      H1150   1.106       .  S
C1146      H1151   1.110       .  S
C1146      H1152   1.111       .  S
C1153      C1154   1.404       .  A
C1153      C1158   1.415       .  A
C1153      H1160   1.084       .  S
C1154      C1155   1.420       .  A
C1155      C1156   1.399       .  A
C1155      C1162   1.512       .  S
C1156      C1157   1.402       .  A
C1156      H1161   1.085   1_655  S
C1157      C1158   1.422       .  A
C1158      C1159   1.503       .  S
C1159      H1163   1.111       .  S
C1159      H1164   1.107       .  S
C1159      H1165   1.109       .  S
C1162      H1166   1.108       .  S
C1162      H1167   1.111       .  S
C1162      H1168   1.110       .  S
C1169      C1170   1.404       .  A
C1169      C1174   1.405       .  A
C1169      H1176   1.084       .  S
C1170      C1171   1.411       .  A
C1171      C1172   1.413       .  A
C1171      C1178   1.505       .  S
C1172      C1173   1.413       .  A
C1172      H1177   1.084       .  S
C1173      C1174   1.425       .  A
C1174      C1175   1.511       .  S
C1175      H1179   1.111       .  S
C1175      H1180   1.110       .  S
C1175      H1181   1.111       .  S
C1178      H1182   1.111       .  S
C1178      H1183   1.109       .  S
C1178      H1184   1.111       .  S
C1185      C1186   1.407       .  A
C1185      C1190   1.412       .  A
C1185      H1192   1.084       .  S
C1186      C1187   1.424       .  A
C1187      C1188   1.407       .  A
C1187      C1194   1.510       .  S
C1188      C1189   1.404       .  A
C1188      H1193   1.085       .  S
C1189      C1190   1.423       .  A
C1190      C1191   1.509       .  S
C1191      H1195   1.111       .  S
C1191      H1196   1.110       .  S
C1191      H1197   1.108       .  S
C1194      H1198   1.108       .  S
C1194      H1199   1.110       .  S
C1194      H1200   1.111       .  S
C1201      C1202   1.411   1_556  A
C1201      C1206   1.422       .  A
C1201      H1208   1.084       .  S
C1202      C1203   1.416       .  A
C1203      C1204   1.406       .  A
C1203      C1210   1.510       .  S
C1204      C1205   1.403   1_554  A
C1204      H1209   1.082       .  S
C1205      C1206   1.416       .  A
C1206      C1207   1.504       .  S
C1207      H1211   1.111       .  S
C1207      H1212   1.110       .  S
C1207      H1213   1.110       .  S
C1210      H1214   1.109       .  S
C1210      H1215   1.110       .  S
C1210      H1216   1.111       .  S
C1217      C1218   1.405       .  A
C1217      C1222   1.415       .  A
C1217      H1224   1.083       .  S
C1218      C1219   1.421       .  A
C1219      C1220   1.406       .  A
C1219      C1226   1.510       .  S
C1220      C1221   1.403       .  A
C1220      H1225   1.084       .  S
C1221      C1222   1.421       .  A
C1222      C1223   1.506       .  S
C1223      H1227   1.111       .  S
C1223      H1228   1.110       .  S
C1223      H1229   1.109       .  S
C1226      H1230   1.110       .  S
C1226      H1231   1.106       .  S
C1226      H1232   1.111       .  S
C1233      C1234   1.405       .  A
C1233      C1238   1.416       .  A
C1233      H1240   1.084       .  S
C1234      C1235   1.424       .  A
C1235      C1236   1.405       .  A
C1235      C1242   1.510       .  S
C1236      C1237   1.402       .  A
C1236      H1241   1.084       .  S
C1237      C1238   1.424       .  A
C1238      C1239   1.507       .  S
C1239      H1243   1.111       .  S
C1239      H1244   1.110       .  S
C1239      H1245   1.110       .  S
C1242      H1246   1.106       .  S
C1242      H1247   1.110       .  S
C1242      H1248   1.111       .  S
C1249      C1250   1.409   1_554  A
C1249      C1254   1.415       .  A
C1249      H1256   1.084       .  S
C1250      C1251   1.413       .  A
C1251      C1252   1.418       .  A
C1251      C1258   1.505       .  S
C1252      C1253   1.412   1_556  A
C1252      H1257   1.084       .  S
C1253      C1254   1.416       .  A
C1254      C1255   1.507       .  S
C1255      H1259   1.111       .  S
C1255      H1260   1.110       .  S
C1255      H1261   1.110       .  S
C1258      H1262   1.110       .  S
C1258      H1263   1.111       .  S
C1258      H1264   1.111       .  S
C1265      C1266   1.408       .  A
C1265      C1270   1.400       .  A
C1265      H1272   1.082       .  S
C1266      C1267   1.416       .  A
C1267      C1268   1.418       .  A
C1267      C1274   1.504       .  S
C1268      C1269   1.411       .  A
C1268      H1273   1.084       .  S
C1269      C1270   1.416       .  A
C1270      C1271   1.512       .  S
C1271      H1275   1.110       .  S
C1271      H1276   1.109       .  S
C1271      H1277   1.111       .  S
C1274      H1278   1.110       .  S
C1274      H1279   1.110       .  S
C1274      H1280   1.111       .  S
C1281      C1282   1.401       .  A
C1281      C1286   1.399       .  A
C1281      H1288   1.083       .  S
C1282      C1283   1.416       .  A
C1283      C1284   1.398       .  A
C1283      C1290   1.509       .  S
C1284      C1285   1.400       .  A
C1284      H1289   1.083       .  S
C1285      C1286   1.415       .  A
C1286      C1287   1.509       .  S
C1287      H1291   1.111       .  S
C1287      H1292   1.109       .  S
C1287      H1293   1.110       .  S
C1290      H1294   1.110       .  S
C1290      H1295   1.110       .  S
C1290      H1296   1.111       .  S
C1297      C1298   1.408       .  A
C1297      C1302   1.400       .  A
C1297      H1304   1.084       .  S
C1298      C1299   1.417       .  A
C1299      C1300   1.418       .  A
C1299      C1306   1.504       .  S
C1300      C1301   1.411       .  A
C1300      H1305   1.082       .  S
C1301      C1302   1.416       .  A
C1302      C1303   1.509       .  S
C1303      H1307   1.111       .  S
C1303      H1308   1.110       .  S
C1303      H1309   1.109       .  S
C1306      H1310   1.110       .  S
C1306      H1311   1.110       .  S
C1306      H1312   1.110       .  S
C1313      C1314   1.406       .  A
C1313      C1318   1.411       .  A
C1313      H1320   1.083       .  S
C1314      C1315   1.420   1_556  A
C1315      C1316   1.411   1_565  A
C1315      C1322   1.509       .  S
C1316      C1317   1.407       .  A
C1316      H1321   1.083       .  S
C1317      C1318   1.422   1_544  A
C1318      C1319   1.510       .  S
C1319      H1323   1.110       .  S
C1319      H1324   1.108   1_565  S
C1319      H1325   1.110       .  S
C1322      H1326   1.110   1_565  S
C1322      H1327   1.108       .  S
C1322      H1328   1.111   1_565  S
C1329      C1330   1.413       .  A
C1329      C1334   1.418       .  A
C1329      H1336   1.083       .  S
C1330      C1331   1.416       .  A
C1331      C1332   1.402       .  A
C1331      C1338   1.510       .  S
C1332      C1333   1.410       .  A
C1332      H1337   1.083       .  S
C1333      C1334   1.416       .  A
C1334      C1335   1.505       .  S
C1335      H1339   1.110       .  S
C1335      H1340   1.110       .  S
C1335      H1341   1.110       .  S
C1338      H1342   1.109       .  S
C1338      H1343   1.111       .  S
C1338      H1344   1.111       .  S
C1345      C1346   1.403       .  A
C1345      C1350   1.413       .  A
C1345      H1352   1.084       .  S
C1346      C1347   1.421       .  A
C1347      C1348   1.414       .  A
C1347      C1354   1.504       .  S
C1348      C1349   1.404       .  A
C1348      H1353   1.084       .  S
C1349      C1350   1.419       .  A
C1350      C1351   1.504       .  S
C1351      H1355   1.110       .  S
C1351      H1356   1.110       .  S
C1351      H1357   1.108       .  S
C1354      H1358   1.110       .  S
C1354      H1359   1.107       .  S
C1354      H1360   1.111       .  S
C1361      C1362   1.409   1_655  A
C1361      C1366   1.416       .  A
C1361      H1368   1.083       .  S
C1362      C1363   1.416       .  A
C1363      C1364   1.403   1_455  A
C1363      C1370   1.510       .  S
C1364      C1365   1.408       .  A
C1364      H1369   1.085       .  S
C1365      C1366   1.417       .  A
C1366      C1367   1.501       .  S
C1367      H1371   1.110       .  S
C1367      H1372   1.110       .  S
C1367      H1373   1.106       .  S
C1370      H1374   1.111       .  S
C1370      H1375   1.109       .  S
C1370      H1376   1.111       .  S
C1377      C1378   1.408       .  A
C1377      C1382   1.414       .  A
C1377      H1384   1.085       .  S
C1378      C1379   1.412       .  A
C1379      C1380   1.407       .  A
C1379      C1386   1.507       .  S
C1380      C1381   1.405       .  A
C1380      H1385   1.085       .  S
C1381      C1382   1.414       .  A
C1382      C1383   1.505       .  S
C1383      H1387   1.111       .  S
C1383      H1388   1.110       .  S
C1383      H1389   1.110       .  S
C1386      H1390   1.110       .  S
C1386      H1391   1.110       .  S
C1386      H1392   1.111       .  S
C1393      C1394   1.410       .  A
C1393      C1398   1.406       .  A
C1393      H1400   1.083       .  S
C1394      C1395   1.413       .  A
C1395      C1396   1.414       .  A
C1395      C1402   1.504       .  S
C1396      C1397   1.412       .  A
C1396      H1401   1.083       .  S
C1397      C1398   1.413       .  A
C1398      C1399   1.508       .  S
C1399      H1403   1.111       .  S
C1399      H1404   1.107       .  S
C1399      H1405   1.109       .  S
C1402      H1406   1.110       .  S
C1402      H1407   1.110       .  S
C1402      H1408   1.111       .  S
C1409      C1410   1.403       .  A
C1409      C1414   1.400       .  A
C1409      H1416   1.085       .  S
C1410      C1411   1.419       .  A
C1411      C1412   1.403       .  A
C1411      C1418   1.509       .  S
C1412      C1413   1.400       .  A
C1412      H1417   1.084       .  S
C1413      C1414   1.414       .  A
C1414      C1415   1.508       .  S
C1415      H1419   1.111       .  S
C1415      H1420   1.110       .  S
C1415      H1421   1.110       .  S
C1418      H1422   1.110       .  S
C1418      H1423   1.110       .  S
C1418      H1424   1.111       .  S
C1425      C1426   1.410   1_455  A
C1425      C1430   1.413       .  A
C1425      H1432   1.083       .  S
C1426      C1427   1.417       .  A
C1427      C1428   1.403   1_655  A
C1427      C1434   1.509       .  S
C1428      C1429   1.404       .  A
C1428      H1433   1.084       .  S
C1429      C1430   1.413       .  A
C1430      C1431   1.505       .  S
C1431      H1435   1.111       .  S
C1431      H1436   1.110       .  S
C1431      H1437   1.109       .  S
C1434      H1438   1.110       .  S
C1434      H1439   1.111       .  S
C1434      H1440   1.108       .  S
C1441      C1442   1.405       .  A
C1441      C1446   1.407   1_655  A
C1441      H1448   1.084       .  S
C1442      C1443   1.422       .  A
C1443      C1444   1.410   1_655  A
C1443      C1450   1.510       .  S
C1444      C1445   1.406       .  A
C1444      H1449   1.084       .  S
C1445      C1446   1.422       .  A
C1446      C1447   1.510       .  S
C1447      H1451   1.111       .  S
C1447      H1452   1.110       .  S
C1447      H1453   1.108       .  S
C1450      H1454   1.108       .  S
C1450      H1455   1.110       .  S
C1450      H1456   1.111       .  S
C1457      C1458   1.410       .  A
C1457      C1462   1.419   1_545  A
C1457      H1464   1.084       .  S
C1458      C1459   1.413       .  A
C1459      C1460   1.411   1_545  A
C1459      C1466   1.507       .  S
C1460      C1461   1.407       .  A
C1460      H1465   1.084       .  S
C1461      C1462   1.416       .  A
C1462      C1463   1.505       .  S
C1463      H1467   1.111   1_565  S
C1463      H1468   1.110       .  S
C1463      H1469   1.110       .  S
C1466      H1470   1.110       .  S
C1466      H1471   1.110       .  S
C1466      H1472   1.111   1_545  S
C1473      C1474   1.407       .  A
C1473      C1478   1.404       .  A
C1473      H1480   1.085       .  S
C1474      C1475   1.414       .  A
C1475      C1476   1.415       .  A
C1475      C1482   1.506       .  S
C1476      C1477   1.412       .  A
C1476      H1481   1.085       .  S
C1477      C1478   1.418       .  A
C1478      C1479   1.509       .  S
C1479      H1483   1.111       .  S
C1479      H1484   1.110       .  S
C1479      H1485   1.110       .  S
C1482      H1486   1.111       .  S
C1482      H1487   1.109       .  S
C1482      H1488   1.111       .  S
C1489      C1490   1.402       .  A
C1489      C1494   1.398       .  A
C1489      H1496   1.085       .  S
C1490      C1491   1.414       .  A
C1491      C1492   1.396       .  A
C1491      C1498   1.509       .  S
C1492      C1493   1.401       .  A
C1492      H1497   1.085       .  S
C1493      C1494   1.415       .  A
C1494      C1495   1.508       .  S
C1495      H1499   1.111       .  S
C1495      H1500   1.110       .  S
C1495      H1501   1.110       .  S
C1498      H1502   1.111       .  S
C1498      H1503   1.110       .  S
C1498      H1504   1.111       .  S
C1505      C1506   1.400       .  A
C1505      C1510   1.404       .  A
C1505      H1512   1.084       .  S
C1506      C1507   1.418       .  A
C1507      C1508   1.418       .  A
C1507      C1514   1.505       .  S
C1508      C1509   1.406       .  A
C1508      H1513   1.083       .  S
C1509      C1510   1.422       .  A
C1510      C1511   1.511       .  S
C1511      H1515   1.111       .  S
C1511      H1516   1.111       .  S
C1511      H1517   1.108       .  S
C1514      H1518   1.110       .  S
C1514      H1519   1.110       .  S
C1514      H1520   1.111       .  S
C1521      C1522   1.409       .  A
C1521      C1526   1.418       .  A
C1521      H1528   1.084       .  S
C1522      C1523   1.413       .  A
C1523      C1524   1.408       .  A
C1523      C1530   1.508       .  S
C1524      C1525   1.407       .  A
C1524      H1529   1.084       .  S
C1525      C1526   1.414       .  A
C1526      C1527   1.504       .  S
C1527      H1531   1.111       .  S
C1527      H1532   1.110       .  S
C1527      H1533   1.111       .  S
C1530      H1534   1.110       .  S
C1530      H1535   1.110       .  S
C1530      H1536   1.111       .  S
C1537      C1538   1.408       .  A
C1537      C1542   1.417       .  A
C1537      H1544   1.084       .  S
C1538      C1539   1.424       .  A
C1539      C1540   1.402   1_455  A
C1539      C1546   1.513       .  S
C1540      C1541   1.401       .  A
C1540      H1545   1.085       .  S
C1541      C1542   1.420   1_655  A
C1542      C1543   1.505       .  S
C1543      H1547   1.111       .  S
C1543      H1548   1.109       .  S
C1543      H1549   1.109       .  S
C1546      H1550   1.109       .  S
C1546      H1551   1.110       .  S
C1546      H1552   1.111   1_455  S
C1553      C1554   1.400       .  A
C1553      C1558   1.401       .  A
C1553      H1560   1.083       .  S
C1554      C1555   1.413       .  A
C1555      C1556   1.395       .  A
C1555      C1562   1.510       .  S
C1556      C1557   1.402       .  A
C1556      H1561   1.084       .  S
C1557      C1558   1.419       .  A
C1558      C1559   1.509       .  S
C1559      H1563   1.111       .  S
C1559      H1564   1.110       .  S
C1559      H1565   1.111       .  S
C1562      H1566   1.109       .  S
C1562      H1567   1.111       .  S
C1562      H1568   1.111       .  S
C1569      C1570   1.401       .  A
C1569      C1574   1.404       .  A
C1569      H1576   1.083       .  S
C1570      C1571   1.415       .  A
C1571      C1572   1.413       .  A
C1571      C1578   1.503       .  S
C1572      C1573   1.404       .  A
C1572      H1577   1.084       .  S
C1573      C1574   1.418       .  A
C1574      C1575   1.510       .  S
C1575      H1579   1.111       .  S
C1575      H1580   1.109       .  S
C1575      H1581   1.111       .  S
C1578      H1582   1.109       .  S
C1578      H1583   1.109       .  S
C1578      H1584   1.111       .  S
C1585      C1586   1.418       .  A
C1585      C1590   1.408       .  A
C1585      H1592   1.082       .  S
C1586      C1587   1.408       .  A
C1587      C1588   1.406       .  A
C1587      C1594   1.507       .  S
C1588      C1589   1.417       .  A
C1588      H1593   1.082       .  S
C1589      C1590   1.409       .  A
C1590      C1591   1.508       .  S
C1591      H1595   1.111       .  S
C1591      H1596   1.108       .  S
C1591      H1597   1.110       .  S
C1594      H1598   1.111       .  S
C1594      H1599   1.109       .  S
C1594      H1600   1.111       .  S
C1601      C1602   1.405       .  A
C1601      C1606   1.417       .  A
C1601      H1608   1.083       .  S
C1602      C1603   1.423       .  A
C1603      C1604   1.407       .  A
C1603      C1610   1.510       .  S
C1604      C1605   1.404       .  A
C1604      H1609   1.084       .  S
C1605      C1606   1.426       .  A
C1606      C1607   1.507       .  S
C1607      H1611   1.111       .  S
C1607      H1612   1.111       .  S
C1607      H1613   1.110       .  S
C1610      H1614   1.111       .  S
C1610      H1615   1.108       .  S
C1610      H1616   1.111       .  S
C1617      C1618   1.397       .  A
C1617      C1622   1.403       .  A
C1617      H1624   1.086       .  S
C1618      C1619   1.416       .  A
C1619      C1620   1.420       .  A
C1619      C1626   1.504       .  S
C1620      C1621   1.410       .  A
C1620      H1625   1.084       .  S
C1621      C1622   1.423       .  A
C1622      C1623   1.505       .  S
C1623      H1627   1.111       .  S
C1623      H1628   1.109       .  S
C1623      H1629   1.108       .  S
C1626      H1630   1.110       .  S
C1626      H1631   1.110       .  S
C1626      H1632   1.111       .  S
C1633      C1634   1.402   1_655  A
C1633      C1638   1.391       .  A
C1633      H1640   1.085       .  S
C1634      C1635   1.411       .  A
C1635      C1636   1.391   1_455  A
C1635      C1642   1.506       .  S
C1636      C1637   1.395       .  A
C1636      H1641   1.085       .  S
C1637      C1638   1.405       .  A
C1638      C1639   1.508       .  S
C1639      H1643   1.111       .  S
C1639      H1644   1.110       .  S
C1639      H1645   1.110       .  S
C1642      H1646   1.109       .  S
C1642      H1647   1.110       .  S
C1642      H1648   1.111       .  S
C1649      C1650   1.412       .  A
C1649      C1654   1.408   1_655  A
C1649      H1656   1.084       .  S
C1650      C1651   1.415       .  A
C1651      C1652   1.417       .  A
C1651      C1658   1.503       .  S
C1652      C1653   1.413   1_655  A
C1652      H1657   1.084       .  S
C1653      C1654   1.416       .  A
C1654      C1655   1.508       .  S
C1655      H1659   1.111       .  S
C1655      H1660   1.110       .  S
C1655      H1661   1.109       .  S
C1658      H1662   1.110       .  S
C1658      H1663   1.108       .  S
C1658      H1664   1.111       .  S
C1665      C1666   1.401       .  A
C1665      C1670   1.412       .  A
C1665      H1672   1.084       .  S
C1666      C1667   1.418       .  A
C1667      C1668   1.405       .  A
C1667      C1674   1.510       .  S
C1668      C1669   1.406       .  A
C1668      H1673   1.085       .  S
C1669      C1670   1.428       .  A
C1670      C1671   1.509       .  S
C1671      H1675   1.111       .  S
C1671      H1676   1.099       .  S
C1671      H1677   1.111       .  S
C1674      H1678   1.108       .  S
C1674      H1679   1.111       .  S
C1674      H1680   1.111       .  S
C1681      C1682   1.397       .  A
C1681      C1686   1.403       .  A
C1681      H1688   1.085       .  S
C1682      C1683   1.417       .  A
C1683      C1684   1.419       .  A
C1683      C1690   1.504       .  S
C1684      C1685   1.408       .  A
C1684      H1689   1.083       .  S
C1685      C1686   1.421       .  A
C1686      C1687   1.503       .  S
C1687      H1691   1.111       .  S
C1687      H1692   1.108       .  S
C1687      H1693   1.109       .  S
C1690      H1694   1.109       .  S
C1690      H1695   1.110       .  S
C1690      H1696   1.111       .  S
C1697      C1698   1.407   1_655  A
C1697      C1702   1.397       .  A
C1697      H1704   1.085       .  S
C1698      C1699   1.409       .  A
C1699      C1700   1.393       .  A
C1699      C1706   1.509       .  S
C1700      C1701   1.409   1_455  A
C1700      H1705   1.084       .  S
C1701      C1702   1.412       .  A
C1702      C1703   1.508       .  S
C1703      H1707   1.111       .  S
C1703      H1708   1.110       .  S
C1703      H1709   1.110       .  S
C1706      H1710   1.110       .  S
C1706      H1711   1.109       .  S
C1706      H1712   1.111       .  S
C1713      C1714   1.410   1_455  A
C1713      C1718   1.416       .  A
C1713      H1720   1.084       .  S
C1714      C1715   1.416       .  A
C1715      C1716   1.400   1_655  A
C1715      C1722   1.509       .  S
C1716      C1717   1.407       .  A
C1716      H1721   1.084       .  S
C1717      C1718   1.416       .  A
C1718      C1719   1.505       .  S
C1719      H1723   1.111       .  S
C1719      H1724   1.110       .  S
C1719      H1725   1.111       .  S
C1722      H1726   1.110       .  S
C1722      H1727   1.107       .  S
C1722      H1728   1.111       .  S
C1729      C1730   1.415       .  A
C1729      C1734   1.409   1_455  A
C1729      H1736   1.083       .  S
C1730      C1731   1.414       .  A
C1731      C1732   1.410   1_465  A
C1731      C1738   1.508       .  S
C1732      C1733   1.417       .  A
C1732      H1737   1.083       .  S
C1733      C1734   1.416   1_545  A
C1734      C1735   1.508       .  S
C1735      H1739   1.111       .  S
C1735      H1740   1.108   1_565  S
C1735      H1741   1.110       .  S
C1738      H1742   1.110   1_565  S
C1738      H1743   1.108       .  S
C1738      H1744   1.111   1_565  S
C1745      C1746   1.407       .  A
C1745      C1750   1.412       .  A
C1745      H1752   1.084       .  S
C1746      C1747   1.412       .  A
C1747      C1748   1.409       .  A
C1747      C1754   1.506       .  S
C1748      C1749   1.405       .  A
C1748      H1753   1.084       .  S
C1749      C1750   1.412       .  A
C1750      C1751   1.506       .  S
C1751      H1755   1.111       .  S
C1751      H1756   1.110       .  S
C1751      H1757   1.111       .  S
C1754      H1758   1.110       .  S
C1754      H1759   1.110       .  S
C1754      H1760   1.111       .  S
C1761      C1762   1.407       .  A
C1761      C1766   1.404       .  A
C1761      H1768   1.085       .  S
C1762      C1763   1.413       .  A
C1763      C1764   1.415       .  A
C1763      C1770   1.504       .  S
C1764      C1765   1.412       .  A
C1764      H1769   1.084       .  S
C1765      C1766   1.417       .  A
C1766      C1767   1.507       .  S
C1767      H1771   1.111       .  S
C1767      H1772   1.109       .  S
C1767      H1773   1.103       .  S
C1770      H1774   1.110       .  S
C1770      H1775   1.110       .  S
C1770      H1776   1.111       .  S
C1777      C1778   1.404       .  A
C1777      C1782   1.394       .  A
C1777      H1784   1.084       .  S
C1778      C1779   1.406       .  A
C1779      C1780   1.392       .  A
C1779      C1786   1.510       .  S
C1780      C1781   1.412       .  A
C1780      H1785   1.083       .  S
C1781      C1782   1.413       .  A
C1782      C1783   1.509       .  S
C1783      H1787   1.111       .  S
C1783      H1788   1.110       .  S
C1783      H1789   1.110       .  S
C1786      H1790   1.110       .  S
C1786      H1791   1.109       .  S
C1786      H1792   1.111       .  S
C1793      C1794   1.400       .  A
C1793      C1798   1.403       .  A
C1793      H1800   1.085       .  S
C1794      C1795   1.418       .  A
C1795      C1796   1.415       .  A
C1795      C1802   1.502       .  S
C1796      C1797   1.405       .  A
C1796      H1801   1.084       .  S
C1797      C1798   1.419       .  A
C1798      C1799   1.510       .  S
C1799      H1803   1.111       .  S
C1799      H1804   1.108       .  S
C1799      H1805   1.111       .  S
C1802      H1806   1.108       .  S
C1802      H1807   1.110       .  S
C1802      H1808   1.111       .  S
C1809      C1810   1.410       .  A
C1809      C1814   1.420       .  A
C1809      H1816   1.085       .  S
C1810      C1811   1.415       .  A
C1811      C1812   1.414   1_565  A
C1811      C1818   1.506       .  S
C1812      C1813   1.408       .  A
C1812      H1817   1.085       .  S
C1813      C1814   1.415   1_545  A
C1814      C1815   1.505   1_565  S
C1815      H1819   1.111   1_545  S
C1815      H1820   1.110       .  S
C1815      H1821   1.110       .  S
C1818      H1822   1.110       .  S
C1818      H1823   1.110       .  S
C1818      H1824   1.111   1_565  S
C1825      C1826   1.408       .  A
C1825      C1830   1.422       .  A
C1825      H1832   1.081       .  S
C1826      C1827   1.413       .  A
C1827      C1828   1.407       .  A
C1827      C1834   1.509       .  S
C1828      C1829   1.412       .  A
C1828      H1833   1.081   1_455  S
C1829      C1830   1.426       .  A
C1830      C1831   1.507       .  S
C1831      H1835   1.110       .  S
C1831      H1836   1.110       .  S
C1831      H1837   1.111       .  S
C1834      H1838   1.110       .  S
C1834      H1839   1.109       .  S
C1834      H1840   1.110       .  S
C1841      C1842   1.409       .  A
C1841      C1846   1.390       .  A
C1841      H1848   1.084       .  S
C1842      C1843   1.412       .  A
C1843      C1844   1.395   1_655  A
C1843      C1850   1.508       .  S
C1844      C1845   1.400       .  A
C1844      H1849   1.084       .  S
C1845      C1846   1.400   1_455  A
C1846      C1847   1.509       .  S
C1847      H1851   1.111       .  S
C1847      H1852   1.111   1_655  S
C1847      H1853   1.110       .  S
C1850      H1854   1.110       .  S
C1850      H1855   1.110       .  S
C1850      H1856   1.111   1_655  S
C1857      C1858   1.410       .  A
C1857      C1862   1.403       .  A
C1857      H1864   1.084       .  S
C1858      C1859   1.425       .  A
C1859      C1860   1.398       .  A
C1859      C1866   1.511       .  S
C1860      C1861   1.394       .  A
C1860      H1865   1.082       .  S
C1861      C1862   1.405       .  A
C1862      C1863   1.506       .  S
C1863      H1867   1.111       .  S
C1863      H1868   1.110       .  S
C1863      H1869   1.110       .  S
C1866      H1870   1.107       .  S
C1866      H1871   1.111       .  S
C1866      H1872   1.111       .  S
C1873      C1874   1.398       .  A
C1873      C1878   1.400       .  A
C1873      H1880   1.084       .  S
C1874      C1875   1.419       .  A
C1875      C1876   1.414       .  A
C1875      C1882   1.503       .  S
C1876      C1877   1.406       .  A
C1876      H1881   1.083       .  S
C1877      C1878   1.426       .  A
C1878      C1879   1.513       .  S
C1879      H1883   1.111       .  S
C1879      H1884   1.109       .  S
C1879      H1885   1.109       .  S
C1882      H1886   1.110       .  S
C1882      H1887   1.107       .  S
C1882      H1888   1.111       .  S
C1889      C1890   1.400       .  A
C1889      C1894   1.408       .  A
C1889      H1896   1.084       .  S
C1890      C1891   1.430       .  A
C1891      C1892   1.407       .  A
C1891      C1898   1.512       .  S
C1892      C1893   1.400       .  A
C1892      H1897   1.084       .  S
C1893      C1894   1.430       .  A
C1894      C1895   1.510       .  S
C1895      H1899   1.111       .  S
C1895      H1900   1.107       .  S
C1895      H1901   1.110       .  S
C1898      H1902   1.111       .  S
C1898      H1903   1.109       .  S
C1898      H1904   1.111       .  S
C1905      C1906   1.399       .  A
C1905      C1910   1.406       .  A
C1905      H1912   1.085       .  S
C1906      C1907   1.416   1_556  A
C1907      C1908   1.417       .  A
C1907      C1914   1.504       .  S
C1908      C1909   1.407       .  A
C1908      H1913   1.084       .  S
C1909      C1910   1.420   1_554  A
C1910      C1911   1.502       .  S
C1911      H1915   1.111       .  S
C1911      H1916   1.107       .  S
C1911      H1917   1.110       .  S
C1914      H1918   1.109       .  S
C1914      H1919   1.110       .  S
C1914      H1920   1.111       .  S
C1921      C1922   1.411       .  A
C1921      C1926   1.399       .  A
C1921      H1928   1.083       .  S
C1922      C1923   1.418       .  A
C1923      C1924   1.422       .  A
C1923      C1930   1.504       .  S
C1924      C1925   1.415       .  A
C1924      H1929   1.084       .  S
C1925      C1926   1.419       .  A
C1926      C1927   1.513       .  S
C1927      H1931   1.111       .  S
C1927      H1932   1.110       .  S
C1927      H1933   1.110       .  S
C1930      H1934   1.110       .  S
C1930      H1935   1.110       .  S
C1930      H1936   1.111       .  S
C1937      C1938   1.398   1_554  A
C1937      C1942   1.395       .  A
C1937      H1944   1.085       .  S
C1938      C1939   1.412       .  A
C1939      C1940   1.389       .  A
C1939      C1946   1.510       .  S
C1940      C1941   1.395   1_556  A
C1940      H1945   1.084       .  S
C1941      C1942   1.407       .  A
C1942      C1943   1.507       .  S
C1943      H1947   1.111       .  S
C1943      H1948   1.110       .  S
C1943      H1949   1.110       .  S
C1946      H1950   1.108       .  S
C1946      H1951   1.109       .  S
C1946      H1952   1.110       .  S
C1953      C1954   1.402       .  A
C1953      C1958   1.402       .  A
C1953      H1960   1.085       .  S
C1954      C1955   1.416       .  A
C1955      C1956   1.398       .  A
C1955      C1962   1.509       .  S
C1956      C1957   1.400       .  A
C1956      H1961   1.084       .  S
C1957      C1958   1.416       .  A
C1958      C1959   1.508       .  S
C1959      H1963   1.111       .  S
C1959      H1964   1.110       .  S
C1959      H1965   1.111       .  S
C1962      H1966   1.110       .  S
C1962      H1967   1.111       .  S
C1962      H1968   1.111       .  S
C1969      C1970   1.413       .  A
C1969      C1974   1.419       .  A
C1969      H1976   1.083       .  S
C1970      C1971   1.420       .  A
C1971      C1972   1.399       .  A
C1971      C1978   1.514       .  S
C1972      C1973   1.409       .  A
C1972      H1977   1.081       .  S
C1973      C1974   1.418       .  A
C1974      C1975   1.505       .  S
C1975      H1979   1.111       .  S
C1975      H1980   1.110       .  S
C1975      H1981   1.110       .  S
C1978      H1982   1.110       .  S
C1978      H1983   1.110       .  S
C1978      H1984   1.111       .  S
C1985      C1986   1.398       .  A
C1985      C1990   1.405       .  A
C1985      H1992   1.085       .  S
C1986      C1987   1.418   1_556  A
C1987      C1988   1.415       .  A
C1987      C1994   1.506       .  S
C1988      C1989   1.406       .  A
C1988      H1993   1.084       .  S
C1989      C1990   1.418   1_554  A
C1990      C1991   1.500       .  S
C1991      H1995   1.111       .  S
C1991      H1996   1.108       .  S
C1991      H1997   1.108       .  S
C1994      H1998   1.109       .  S
C1994      H1999   1.110       .  S
C1994      H2000   1.110       .  S
C2001      C2002   1.402       .  A
C2001      C2006   1.411       .  A
C2001      H2008   1.084       .  S
C2002      C2003   1.421       .  A
C2003      C2004   1.403       .  A
C2003      C2010   1.510       .  S
C2004      C2005   1.401       .  A
C2004      H2009   1.085       .  S
C2005      C2006   1.422       .  A
C2006      C2007   1.506       .  S
C2007      H2011   1.111       .  S
C2007      H2012   1.109       .  S
C2007      H2013   1.108       .  S
C2010      H2014   1.110       .  S
C2010      H2015   1.108       .  S
C2010      H2016   1.111       .  S
C2017      C2018   1.408       .  A
C2017      C2022   1.391       .  A
C2017      H2024   1.083       .  S
C2018      C2019   1.411   1_554  A
C2019      C2020   1.391       .  A
C2019      C2026   1.509       .  S
C2020      C2021   1.405       .  A
C2020      H2025   1.084       .  S
C2021      C2022   1.406   1_556  A
C2022      C2023   1.508       .  S
C2023      H2027   1.111       .  S
C2023      H2028   1.109       .  S
C2023      H2029   1.110   1_554  S
C2026      H2030   1.110   1_556  S
C2026      H2031   1.108       .  S
C2026      H2032   1.111       .  S
C2033      C2034   1.410       .  A
C2033      C2038   1.406       .  A
C2033      H2040   1.083       .  S
C2034      C2035   1.416       .  A
C2035      C2036   1.415       .  A
C2035      C2042   1.505       .  S
C2036      C2037   1.413       .  A
C2036      H2041   1.083       .  S
C2037      C2038   1.419       .  A
C2038      C2039   1.509       .  S
C2039      H2043   1.111       .  S
C2039      H2044   1.111       .  S
C2039      H2045   1.109       .  S
C2042      H2046   1.111       .  S
C2042      H2047   1.110       .  S
C2042      H2048   1.111       .  S
C2049      C2050   1.403       .  A
C2049      C2054   1.407       .  A
C2049      H2056   1.083       .  S
C2050      C2051   1.419   1_554  A
C2051      C2052   1.408       .  A
C2051      C2058   1.510       .  S
C2052      C2053   1.406       .  A
C2052      H2057   1.083       .  S
C2053      C2054   1.422   1_556  A
C2054      C2055   1.510       .  S
C2055      H2059   1.111       .  S
C2055      H2060   1.110       .  S
C2055      H2061   1.108       .  S
C2058      H2062   1.108       .  S
C2058      H2063   1.110       .  S
C2058      H2064   1.111       .  S
C2065      C2066   1.406       .  A
C2065      C2070   1.410       .  A
C2065      H2072   1.084       .  S
C2066      C2067   1.413       .  A
C2067      C2068   1.415       .  A
C2067      C2074   1.505       .  S
C2068      C2069   1.407       .  A
C2068      H2073   1.081       .  S
C2069      C2070   1.413       .  A
C2070      C2071   1.506       .  S
C2071      H2075   1.111       .  S
C2071      H2076   1.110       .  S
C2071      H2077   1.110       .  S
C2074      H2078   1.111       .  S
C2074      H2079   1.110       .  S
C2074      H2080   1.110       .  S
C2081      C2082   1.413       .  A
C2081      C2086   1.415       .  A
C2081      H2088   1.081       .  S
C2082      C2083   1.417       .  A
C2083      C2084   1.400       .  A
C2083      C2090   1.510       .  S
C2084      C2085   1.407       .  A
C2084      H2089   1.083       .  S
C2085      C2086   1.414       .  A
C2086      C2087   1.505       .  S
C2087      H2091   1.111       .  S
C2087      H2092   1.111       .  S
C2087      H2093   1.110       .  S
C2090      H2094   1.110       .  S
C2090      H2095   1.110       .  S
C2090      H2096   1.111       .  S
C2097      C2098   1.400       .  A
C2097      C2102   1.394       .  A
C2097      H2104   1.083       .  S
C2098      C2099   1.401       .  A
C2099      C2100   1.389       .  A
C2099      C2106   1.510       .  S
C2100      C2101   1.411       .  A
C2100      H2105   1.084       .  S
C2101      C2102   1.413       .  A
C2102      C2103   1.508       .  S
C2103      H2107   1.111       .  S
C2103      H2108   1.110       .  S
C2103      H2109   1.111       .  S
C2106      H2110   1.110       .  S
C2106      H2111   1.110       .  S
C2106      H2112   1.111       .  S
C2113      C2114   1.406       .  A
C2113      C2118   1.399       .  A
C2113      H2120   1.085       .  S
C2114      C2115   1.413       .  A
C2115      C2116   1.399       .  A
C2115      C2122   1.504       .  S
C2116      C2117   1.398       .  A
C2116      H2121   1.082       .  S
C2117      C2118   1.409       .  A
C2118      C2119   1.508       .  S
C2119      H2123   1.111       .  S
C2119      H2124   1.110       .  S
C2119      H2125   1.109       .  S
C2122      H2126   1.109       .  S
C2122      H2127   1.110       .  S
C2122      H2128   1.111       .  S
C2129      C2130   1.403       .  A
C2129      C2134   1.414       .  A
C2129      H2136   1.082       .  S
C2130      C2131   1.421       .  A
C2131      C2132   1.405       .  A
C2131      C2138   1.510       .  S
C2132      C2133   1.402       .  A
C2132      H2137   1.083       .  S
C2133      C2134   1.424       .  A
C2134      C2135   1.507       .  S
C2135      H2139   1.111       .  S
C2135      H2140   1.109       .  S
C2135      H2141   1.110       .  S
C2138      H2142   1.109       .  S
C2138      H2143   1.110       .  S
C2138      H2144   1.111       .  S
C2145      C2146   1.408       .  A
C2145      C2150   1.413   1_545  A
C2145      H2152   1.084       .  S
C2146      C2147   1.412       .  A
C2147      C2148   1.412   1_545  A
C2147      C2154   1.506       .  S
C2148      C2149   1.406       .  A
C2148      H2153   1.084       .  S
C2149      C2150   1.414       .  A
C2150      C2151   1.506       .  S
C2151      H2155   1.111   1_565  S
C2151      H2156   1.110       .  S
C2151      H2157   1.110       .  S
C2154      H2158   1.110       .  S
C2154      H2159   1.110       .  S
C2154      H2160   1.111   1_545  S
C2161      C2162   1.410       .  A
C2161      C2166   1.413       .  A
C2161      H2168   1.080       .  S
C2162      C2163   1.416       .  A
C2163      C2164   1.402       .  A
C2163      C2170   1.509   1_655  S
C2164      C2165   1.406       .  A
C2164      H2169   1.084       .  S
C2165      C2166   1.413       .  A
C2166      C2167   1.505       .  S
C2167      H2171   1.111       .  S
C2167      H2172   1.110       .  S
C2167      H2173   1.110       .  S
C2170      H2174   1.111       .  S
C2170      H2175   1.109       .  S
C2170      H2176   1.111       .  S
C2177      C2178   1.409       .  A
C2177      C2182   1.391       .  A
C2177      H2184   1.084       .  S
C2178      C2179   1.411       .  A
C2179      C2180   1.397   1_455  A
C2179      C2186   1.508       .  S
C2180      C2181   1.401       .  A
C2180      H2185   1.085       .  S
C2181      C2182   1.403   1_655  A
C2182      C2183   1.509       .  S
C2183      H2187   1.111       .  S
C2183      H2188   1.110       .  S
C2183      H2189   1.110   1_455  S
C2186      H2190   1.111       .  S
C2186      H2191   1.109       .  S
C2186      H2192   1.111   1_455  S
C2193      C2194   1.400       .  A
C2193      C2198   1.400       .  A
C2193      H2200   1.084       .  S
C2194      C2195   1.417       .  A
C2195      C2196   1.402       .  A
C2195      C2202   1.508       .  S
C2196      C2197   1.401       .  A
C2196      H2201   1.084       .  S
C2197      C2198   1.418       .  A
C2198      C2199   1.509       .  S
C2199      H2203   1.111       .  S
C2199      H2204   1.110       .  S
C2199      H2205   1.111       .  S
C2202      H2206   1.110       .  S
C2202      H2207   1.111       .  S
C2202      H2208   1.111       .  S
C2209      C2210   1.403       .  A
C2209      C2214   1.407       .  A
C2209      H2216   1.084       .  S
C2210      C2211   1.420       .  A
C2211      C2212   1.411       .  A
C2211      C2218   1.507       .  S
C2212      C2213   1.403       .  A
C2212      H2217   1.084       .  S
C2213      C2214   1.417       .  A
C2214      C2215   1.509       .  S
C2215      H2219   1.111       .  S
C2215      H2220   1.111       .  S
C2215      H2221   1.109       .  S
C2218      H2222   1.109       .  S
C2218      H2223   1.110       .  S
C2218      H2224   1.111       .  S
C2225      C2226   1.406       .  A
C2225      C2230   1.407       .  A
C2225      H2232   1.083       .  S
C2226      C2227   1.419       .  A
C2227      C2228   1.408       .  A
C2227      C2234   1.509       .  S
C2228      C2229   1.407       .  A
C2228      H2233   1.083       .  S
C2229      C2230   1.418       .  A
C2230      C2231   1.509       .  S
C2231      H2235   1.111       .  S
C2231      H2236   1.108       .  S
C2231      H2237   1.110       .  S
C2234      H2238   1.110       .  S
C2234      H2239   1.109       .  S
C2234      H2240   1.111       .  S
