geometry optimzed in LAMMPS
_audit_creation_date              2020-12-01 
_audit_creation_method            'lammps2cif' 
_symmetry_space_group_name_H-M    'P1' 
_symmetry_Int_Tables_number       1 
_symmetry_cell_setting            triclinic 
loop_ 
_symmetry_equiv_pos_as_xyz 
  x,y,z 
_cell_length_a                    33.04939002 
_cell_length_b                    32.93490834885179 
_cell_length_c                    96.27739195226802 
_cell_angle_alpha                 89.90116624459607 
_cell_angle_beta                  89.91176624620492 
_cell_angle_gamma                 119.85245161854168 
loop_ 
_atom_site_label 
_atom_site_type_symbol 
_atom_site_fract_x 
_atom_site_fract_y 
_atom_site_fract_z 
_atom_site_charge 
Zr1        Zr  0.03310211  0.36718707  0.98213254     2.17500
O2          O  0.96630850  0.37961030  0.98399618    -0.51800
O3          O  0.99337121  0.30955325  0.00057338    -0.75000
O4          O  0.96915631  0.31882644  0.96633682    -0.81800
O5          O  0.10197535  0.47736574  0.00406751    -0.83500
O6          O  0.99776278  0.28767230  0.95081287    -0.79200
O7          O  0.02975071  0.42608307  0.99573486    -0.90800
O8          O  0.03895011  0.27955474  0.00714118    -0.76800
O9          O  0.04893937  0.30708893  0.97572720    -0.86200
O10         O  0.08933512  0.37232455  0.99870342    -0.85900
O11         O  0.06295209  0.38783138  0.95881003    -0.72700
O12         O  0.09993251  0.44441729  0.97996291    -0.84800
Zr13       Zr  0.20159115  0.40564739  0.96630539     2.26400
Zr14       Zr  0.08084758  0.32780915  0.95278679     2.06300
Zr15       Zr  0.15624750  0.44900334  0.99651600     2.10000
Zr16       Zr  0.10586115  0.31238458  0.99183379     1.78800
O17         O  0.20335722  0.53340885  0.99950741    -0.93600
O18         O  0.06539178  0.23009775  0.98523076    -0.41400
O19         O  0.17248340  0.38861060  0.98963852    -0.78100
O20         O  0.13654430  0.32839959  0.96859034    -0.96800
O21         O  0.14689995  0.40397501  0.95023121    -0.90100
O22         O  0.18701470  0.46677919  0.97347429    -0.92900
C23         C  0.00280537  0.28404594  0.00853390     1.00900
C24         C  0.05787152  0.46287172  0.00239357     1.13800
C25         C  0.96467603  0.29169170  0.95620687     1.04600
O26         O  0.06410544  0.24703088  0.95197088    -0.95100
O27         O  0.13455527  0.32856211  0.93566915    -0.90800
O28         O  0.20796683  0.37649916  0.94356995    -0.83900
C29         C  0.17900215  0.34885570  0.93444099     1.11200
O30         O  0.08016988  0.49320034  0.95007187    -0.97000
Zr31       Zr  0.13197540  0.46411442  0.95704856     1.88900
O32         O  0.25334121  0.47652502  0.95414643    -0.73700
O33         O  0.05603385  0.32728223  0.92888889    -0.52900
O34         O  0.11879781  0.45854384  0.93206645    -0.97600
O35         O  0.15430526  0.54358274  0.96410426    -0.54800
O36         O  0.21129764  0.51131426  0.94801467    -0.74200
C37         C  0.24930600  0.50962797  0.94860035     0.98100
O38         O  0.25066838  0.36957959  0.96683963    -0.63000
O39         O  0.15347067  0.43642711  0.02153706    -0.57800
O40         O  0.26458429  0.44399309  0.98244363    -0.94500
O41         O  0.23776742  0.46526851  0.00135683    -0.92900
O42         O  0.13843651  0.31668314  0.01481111    -0.93300
O43         O  0.15676903  0.27936365  0.99498747    -0.92100
C44         C  0.26962860  0.46079053  0.99469332     1.17000
H45         H  0.07793191  0.36850647  0.00811818     0.32900
H46         H  0.14521465  0.30564236  0.96582388     0.43800
H47         H  0.21502597  0.49701266  0.97381028     0.37300
H48         H  0.03933452  0.38673560  0.95265952     0.33800
H49         H  0.06395432  0.21303595  0.99386157     0.25600
H50         H  0.03411200  0.29403083  0.92667136     0.31500
H51         H  0.14358862  0.45347621  0.92810188     0.37400
H52         H  0.16525586  0.34893365  0.01545241     0.31900
H53         H  0.18025333  0.46534134  0.02523238     0.30800
H54         H  0.20813547  0.53791545  0.00965954     0.32400
H55         H  0.17154146  0.56351993  0.95605517     0.31400
H56         H  0.18562787  0.30088059  0.98986555     0.35400
H57         H  0.25392489  0.36411622  0.97678369     0.28100
H58         H  0.93893050  0.34856875  0.98604977     0.32400
H59         H  0.04870412  0.46854408  0.95303538     0.35200
H60         H  0.12565935  0.43766922  0.02477719     0.27800
H61         H  0.23101439  0.33768900  0.96305885     0.40700
H62         H  0.03241254  0.22848859  0.95597552     0.30800
H63         H  0.03268868  0.22212195  0.98358559     0.38400
H64         H  0.17843782  0.55155261  0.97130817     0.30200
H65         H  0.03654721  0.34236071  0.92918207     0.30300
H66         H  0.96091410  0.38782125  0.97454059     0.30600
Zr67       Zr  0.66448024  0.98852027  0.86874456     2.17500
O68         O  0.66407416  0.06055375  0.86278723    -0.51800
O69         O  0.71397169  0.01567810  0.84795508    -0.75000
O70         O  0.71667867  0.05675143  0.88260089    -0.81800
O71         O  0.54572390  0.91894408  0.85079265    -0.83500
O72         O  0.74895037  0.03080610  0.89853762    -0.79200
O73         O  0.59995921  0.99144077  0.85828309    -0.90800
O74         O  0.73827934  0.96424379  0.84261827    -0.76800
O75         O  0.72275999  0.96871719  0.87433993    -0.86200
O76         O  0.64808867  0.92378224  0.85395012    -0.85900
O77         O  0.65328612  0.96907969  0.89319946    -0.72700
O78         O  0.58641365  0.92729705  0.87406542    -0.84800
Zr79       Zr  0.61844017  0.82354009  0.88957764     2.26400
Zr80       Zr  0.71046027  0.94638593  0.89840036     2.06300
Zr81       Zr  0.57040100  0.86250557  0.85927567     2.10000
Zr82       Zr  0.70562723  0.90307757  0.86002070     1.78800
O83         O  0.48573093  0.82034208  0.85746344    -0.93600
O84         O  0.78952380  0.93695344  0.86298842    -0.41400
O85         O  0.62828970  0.84195954  0.86529171    -0.78100
O86         O  0.69711738  0.88162828  0.88421697    -0.96800
O87         O  0.63294647  0.88758117  0.90393564    -0.90100
O88         O  0.55965584  0.84253068  0.88344789    -0.92900
C89         C  0.73584823  0.00122976  0.84017534     1.00900
C90         C  0.56182407  0.96363122  0.85214189     1.13800
C91         C  0.74478003  0.06323053  0.89258711     1.04600
O92         O  0.78570918  0.95115284  0.89502284    -0.95100
O93         O  0.70007859  0.89543159  0.91824486    -0.90800
O94         O  0.64965932  0.82040665  0.91212941    -0.83900
C95         C  0.67705417  0.85124881  0.92087165     1.11200
O96         O  0.56216247  0.97308359  0.90080755    -0.97000
Zr97       Zr  0.57540396  0.90705878  0.89812827     1.88900
O98         O  0.55394062  0.78452952  0.90539076    -0.73700
O99         O  0.74386493  0.98343040  0.92066766    -0.52900
O100        O  0.59145463  0.93423073  0.92206318    -0.97600
O101        O  0.49442858  0.88738528  0.89527208    -0.54800
O102        O  0.53163293  0.83626093  0.91210563    -0.74200
C103        C  0.52848646  0.79581871  0.91261337     0.98100
O104        O  0.64571181  0.76695828  0.88977211    -0.63000
O105        O  0.57521864  0.85612570  0.83419375    -0.57800
O106        O  0.56912790  0.75493137  0.87626969    -0.94500
O107        O  0.54281928  0.77627262  0.85735345    -0.92900
O108        O  0.68815341  0.86221577  0.83788367    -0.93300
O109        O  0.72849737  0.84360290  0.85767506    -0.92100
C110        C  0.54621122  0.74527202  0.86490321     1.17000
H111        H  0.64918129  0.93166942  0.84424942     0.32900
H112        H  0.71812411  0.87037077  0.88672600     0.43800
H113        H  0.52853502  0.81649325  0.88486758     0.37300
H114        H  0.65823770  0.99537116  0.89880354     0.33800
H115        H  0.80092227  0.93276476  0.85388300     0.25600
H116        H  0.77735649  0.00579730  0.91898664     0.31500
H117        H  0.56062991  0.91837620  0.92672908     0.37400
H118        H  0.67057203  0.87414403  0.83258319     0.31900
H119        H  0.57326182  0.82545107  0.83273854     0.30800
H120        H  0.47474945  0.82570777  0.86647927     0.32400
H121        H  0.48356511  0.88871451  0.90475998     0.31400
H122        H  0.71590256  0.82373058  0.86605992     0.35400
H123        H  0.64787195  0.76003318  0.87988366     0.28100
H124        H  0.69669141  0.08418634  0.86047586     0.32400
H125        H  0.58023385  0.99477467  0.89316231     0.35200
H126        H  0.54519146  0.85177483  0.83066347     0.27800
H127        H  0.67861939  0.78479962  0.89283267     0.40700
H128        H  0.80721482  0.98439402  0.89264574     0.30800
H129        H  0.80180936  0.97111201  0.86365424     0.38400
H130        H  0.47749763  0.85372378  0.89286256     0.30200
H131        H  0.72970655  0.00287970  0.92307446     0.30300
H132        H  0.65677172  0.07181499  0.87145785     0.30600
Zr133      Zr  0.67210375  0.65045963  0.31453049     2.17500
O134        O  0.65277475  0.56872560  0.31305868    -0.51800
O135        O  0.73588767  0.67011040  0.33063913    -0.75000
O136        O  0.71979670  0.63712507  0.29785987    -0.81800
O137        O  0.57509679  0.61190248  0.34139309    -0.83500
O138        O  0.73009868  0.68357430  0.27916534    -0.79200
O139        O  0.62688553  0.59330123  0.33188258    -0.90800
O140        O  0.76765451  0.74661064  0.33623549    -0.76800
O141        O  0.72797066  0.72577007  0.30615171    -0.86200
O142        O  0.67212231  0.70339548  0.33146465    -0.85900
O143        O  0.64290904  0.65633108  0.29223764    -0.72700
O144        O  0.59384787  0.63744585  0.31550938    -0.84800
Zr145      Zr  0.62372938  0.77614805  0.30129027     2.26400
Zr146      Zr  0.69810322  0.73344837  0.28424360     2.06300
Zr147      Zr  0.59440682  0.69128807  0.33228169     2.10000
Zr148      Zr  0.72799920  0.77884385  0.32282707     1.78800
O149        O  0.51117519  0.65263999  0.33733667    -0.93600
O150        O  0.80712610  0.82193822  0.31353442    -0.41400
O151        O  0.65073505  0.76757403  0.32369954    -0.78100
O152        O  0.70211097  0.79008422  0.30055127    -0.96800
O153        O  0.62081438  0.72163739  0.28474744    -0.90100
O154        O  0.56764433  0.70077578  0.31011630    -0.92900
C155        C  0.76463649  0.70643843  0.33755093     1.00900
C156        C  0.59263747  0.58449230  0.33992120     1.13800
C157        C  0.73454334  0.65187790  0.28552733     1.04600
O158        O  0.77993653  0.78459817  0.27839054    -0.95100
O159        O  0.70277803  0.79591160  0.26983703    -0.90800
O160        O  0.65305216  0.81743873  0.27912077    -0.83900
C161        C  0.68192584  0.81991988  0.26972497     1.11200
O162        O  0.54101149  0.56496166  0.28829543    -0.97000
Zr163      Zr  0.56606903  0.64653383  0.29350804     1.88900
O164        O  0.54978250  0.75266699  0.29004385    -0.73700
O165        O  0.67731189  0.70722348  0.26033847    -0.52900
O166        O  0.56233466  0.63525440  0.26842519    -0.97600
O167        O  0.48971545  0.59102757  0.30302077    -0.54800
O168        O  0.51450777  0.67439183  0.28592490    -0.74200
C169        C  0.51590647  0.71392732  0.28564925     0.98100
O170        O  0.64394930  0.85808638  0.30270084    -0.63000
O171        O  0.61197980  0.70383760  0.35697053    -0.57800
O172        O  0.59329947  0.80289992  0.31957509    -0.94500
O173        O  0.57555031  0.75406790  0.33823766    -0.92900
O174        O  0.73273837  0.80805557  0.34631305    -0.93300
O175        O  0.76074593  0.86309467  0.32508174    -0.92100
C176        C  0.57862457  0.79053359  0.33201666     1.17000
H177        H  0.67984583  0.69730034  0.34060219     0.32900
H178        H  0.72310879  0.82144059  0.29723625     0.43800
H179        H  0.53749482  0.69804514  0.31138842     0.37300
H180        H  0.64196475  0.63288000  0.28601511     0.33800
H181        H  0.82723968  0.83595367  0.32176512     0.25600
H182        H  0.70631123  0.71121631  0.25603760     0.31500
H183        H  0.53187340  0.63150588  0.26559962     0.37400
H184        H  0.71301205  0.77979811  0.35195638     0.31900
H185        H  0.62730697  0.73818394  0.35817438     0.30800
H186        H  0.49937063  0.61914261  0.33531704     0.32400
H187        H  0.47669452  0.61049415  0.30642733     0.31400
H188        H  0.73635851  0.86917085  0.32134451     0.35400
H189        H  0.67682211  0.87641333  0.29957978     0.28100
H190        H  0.68212740  0.56849849  0.31492362     0.32400
H191        H  0.51397339  0.55436751  0.28198922     0.35200
H192        H  0.58113143  0.69160959  0.36149540     0.27800
H193        H  0.62559076  0.86247370  0.29532827     0.40700
H194        H  0.78948954  0.81328940  0.28390519     0.30800
H195        H  0.81433901  0.79765703  0.31036293     0.38400
H196        H  0.49655823  0.57887435  0.31158130     0.30200
H197        H  0.65644508  0.67295048  0.26102897     0.30300
H198        H  0.64559993  0.55985334  0.30316906     0.30600
Zr199      Zr  0.04369419  0.65507388  0.20057080     2.17500
O200        O  0.96930983  0.58398752  0.19618778    -0.51800
O201        O  0.01190021  0.67650627  0.18060009    -0.75000
O202        O  0.98108266  0.64300279  0.21641485    -0.81800
O203        O  0.10718993  0.60753561  0.17858608    -0.83500
O204        O  0.00899703  0.70682210  0.23032234    -0.79200
O205        O  0.03817873  0.58800804  0.18917492    -0.90800
O206        O  0.06387522  0.75051730  0.17383173    -0.76800
O207        O  0.06481299  0.73280885  0.20682731    -0.86200
O208        O  0.10470490  0.70271945  0.18472939    -0.85900
O209        O  0.06843406  0.66222776  0.22441535    -0.72700
O210        O  0.10494387  0.63665757  0.20383182    -0.84800
Zr211      Zr  0.21273570  0.77426454  0.21836369     2.26400
Zr212      Zr  0.09228924  0.74188180  0.23032376     2.06300
Zr213      Zr  0.16657236  0.68586485  0.18818055     2.10000
Zr214      Zr  0.12550714  0.78076614  0.19108712     1.78800
O215        O  0.21033139  0.64433390  0.18815653    -0.93600
O216        O  0.08317264  0.82343760  0.19348152    -0.41400
O217        O  0.18698686  0.76393379  0.19468954    -0.78100
O218        O  0.15249797  0.79369642  0.21485327    -0.96800
O219        O  0.15286439  0.72409131  0.23374429    -0.90100
O220        O  0.19307104  0.69645882  0.21171138    -0.92900
C221        C  0.02596950  0.71148838  0.17223311     1.00900
C222        C  0.06306785  0.57919671  0.18091475     1.13800
C223        C  0.97606610  0.66833987  0.22556945     1.04600
O224        O  0.08167520  0.80959675  0.23260026    -0.95100
O225        O  0.14669960  0.78951554  0.24843156    -0.90800
O226        O  0.22004237  0.81259414  0.24073701    -0.83900
C227        C  0.19121744  0.81118857  0.24997678     1.11200
O228        O  0.07008375  0.56665288  0.23154685    -0.97000
Zr229      Zr  0.13186690  0.64684994  0.22723268     1.88900
O230        O  0.25525670  0.74798461  0.23263209    -0.73700
O231        O  0.06074734  0.71245320  0.25343054    -0.52900
O232        O  0.11198063  0.63396920  0.25182796    -0.97600
O233        O  0.15732780  0.59110716  0.22125420    -0.54800
O234        O  0.20396367  0.67411454  0.23987708    -0.74200
C235        C  0.24428693  0.71106133  0.23978122     0.98100
O236        O  0.27204594  0.85691327  0.21726988    -0.63000
O237        O  0.17272892  0.69214565  0.16296480    -0.57800
O238        O  0.27665207  0.79674650  0.20256880    -0.94500
O239        O  0.24768433  0.75121285  0.18324860    -0.92900
O240        O  0.16745955  0.80673728  0.16913093    -0.93300
O241        O  0.17999559  0.86469825  0.19070439    -0.92100
C242        C  0.28047092  0.78613697  0.19004695     1.17000
H243        H  0.09522656  0.69541088  0.17516828     0.32900
H244        H  0.16346928  0.82579874  0.21749797     0.43800
H245        H  0.21950291  0.69156509  0.21229685     0.37300
H246        H  0.04317559  0.64075114  0.23036651     0.33800
H247        H  0.08588830  0.83800521  0.18426607     0.25600
H248        H  0.04289000  0.72815898  0.25598415     0.31500
H249        H  0.10220745  0.65703491  0.25421437     0.37400
H250        H  0.15105637  0.82014476  0.16390715     0.31900
H251        H  0.17737088  0.72363712  0.16087799     0.30800
H252        H  0.23144499  0.65706994  0.18003437     0.32400
H253        H  0.19184611  0.60939699  0.22126268     0.31400
H254        H  0.21025370  0.86773879  0.19344770     0.35400
H255        H  0.25582997  0.87413008  0.22000001     0.28100
H256        H  0.94603252  0.59414893  0.19469610     0.32400
H257        H  0.08271440  0.55409040  0.23861865     0.35200
H258        H  0.20311314  0.69453219  0.16075949     0.27800
H259        H  0.29369748  0.86186236  0.22501688     0.40700
H260        H  0.07021193  0.80765849  0.24222295     0.30800
H261        H  0.04987741  0.79902884  0.19420920     0.38400
H262        H  0.14896649  0.58376378  0.21134485     0.30200
H263        H  0.03687282  0.67913496  0.25217607     0.30300
H264        H  0.96007554  0.56606918  0.20501270     0.30600
Zr265      Zr  0.68511947  0.01311815  0.15095534     2.17500
O266        O  0.61715865  0.93871920  0.15767005    -0.51800
O267        O  0.70580563  0.98411165  0.17152763    -0.75000
O268        O  0.66992008  0.94821237  0.13577542    -0.81800
O269        O  0.63543520  0.08235266  0.16895921    -0.83500
O270        O  0.73528442  0.97029588  0.12301316    -0.79200
O271        O  0.61646301  0.01069365  0.16034920    -0.90800
O272        O  0.78018282  0.03545248  0.17779014    -0.76800
O273        O  0.76277275  0.03205843  0.14553757    -0.86200
O274        O  0.73266537  0.07649290  0.16612220    -0.85900
O275        O  0.69384409  0.03324457  0.12659729    -0.72700
O276        O  0.66857905  0.07480180  0.14585760    -0.84800
Zr277      Zr  0.80479992  0.17763567  0.13053306     2.26400
Zr278      Zr  0.77318084  0.05456945  0.12148219     2.06300
Zr279      Zr  0.71699915  0.13848965  0.16087835     2.10000
Zr280      Zr  0.81069108  0.09645976  0.16020051     1.78800
O281        O  0.67344287  0.17987621  0.16302074    -0.93600
O282        O  0.85917061  0.06032709  0.15754409    -0.41400
O283        O  0.79516040  0.15824713  0.15477006    -0.78100
O284        O  0.82417856  0.11843366  0.13600935    -0.96800
O285        O  0.75559651  0.11458430  0.11604898    -0.90100
O286        O  0.72761360  0.15961874  0.13683354    -0.92900
C287        C  0.74082739  0.99813425  0.17970785     1.00900
C288        C  0.60629457  0.03818578  0.16689079     1.13800
C289        C  0.69459177  0.93980525  0.12725943     1.04600
O290        O  0.84330450  0.04781526  0.12102033    -0.95100
O291        O  0.81959644  0.10518258  0.10239422    -0.90800
O292        O  0.83914502  0.17970930  0.10800359    -0.83900
C293        C  0.83877760  0.14914859  0.09965079     1.11200
O294        O  0.60009609  0.03203439  0.11814862    -0.97000
Zr295      Zr  0.67903975  0.09634862  0.12191309     1.88900
O296        O  0.78038166  0.21979731  0.11532236    -0.73700
O297        O  0.74711771  0.01663101  0.09894293    -0.52900
O298        O  0.67180801  0.07480264  0.09749423    -0.97600
O299        O  0.61887760  0.11770303  0.12511618    -0.54800
O300        O  0.70541305  0.16908822  0.10924091    -0.74200
C301        C  0.74269368  0.20924514  0.10877703     0.98100
O302        O  0.88827045  0.23373603  0.13094519    -0.63000
O303        O  0.73235512  0.14592964  0.18576876    -0.57800
O304        O  0.82308306  0.24526078  0.14396234    -0.94500
O305        O  0.77443351  0.22442531  0.16265600    -0.92900
O306        O  0.83356473  0.14083649  0.18176971    -0.93300
O307        O  0.89388150  0.15103478  0.16268501    -0.92100
C308        C  0.80915743  0.25492994  0.15519876     1.17000
H309        H  0.72529096  0.06833211  0.17578066     0.32900
H310        H  0.85638375  0.12912292  0.13359332     0.43800
H311        H  0.72278363  0.18603020  0.13566087     0.37300
H312        H  0.67260883  0.00749721  0.12081404     0.33800
H313        H  0.86313681  0.05158242  0.16708146     0.25600
H314        H  0.76033684  0.99560569  0.09795676     0.31500
H315        H  0.65077711  0.08519783  0.09356690     0.37400
H316        H  0.83924161  0.12117302  0.18838597     0.31900
H317        H  0.76228667  0.17557192  0.18679152     0.30800
H318        H  0.68030049  0.19306889  0.17251860     0.32400
H319        H  0.61025738  0.12187849  0.11558836     0.31400
H320        H  0.89838089  0.18094325  0.15887017     0.35400
H321        H  0.89680506  0.23793989  0.14090417     0.28100
H322        H  0.62851184  0.91623955  0.15896886     0.32400
H323        H  0.59328280  0.01173306  0.12642648     0.35200
H324        H  0.70870771  0.15266914  0.18975948     0.27800
H325        H  0.90339663  0.21657554  0.12720985     0.40700
H326        H  0.83174222  0.01373903  0.12068317     0.30800
H327        H  0.83907051  0.03008200  0.15286778     0.38400
H328        H  0.63542983  0.14972335  0.12901839     0.30200
H329        H  0.71299751  0.99556708  0.09979874     0.30300
H330        H  0.59668029  0.92734801  0.14940676     0.30600
Zr331      Zr  0.66752609  0.63850209  0.03812612     2.17500
O332        O  0.58740343  0.62345360  0.03656202    -0.51800
O333        O  0.68533911  0.69717449  0.02009208    -0.75000
O334        O  0.64848017  0.68423741  0.05405345    -0.81800
O335        O  0.63045390  0.53233473  0.01469819    -0.83500
O336        O  0.69373051  0.69821601  0.07310608    -0.79200
O337        O  0.60746974  0.58182813  0.02350585    -0.90800
O338        O  0.76007114  0.72607588  0.01303841    -0.76800
O339        O  0.74230224  0.69919438  0.04513337    -0.86200
O340        O  0.72012101  0.63548998  0.02161285    -0.85900
O341        O  0.67541046  0.61578353  0.06133109    -0.72700
O342        O  0.65807917  0.56127777  0.03952042    -0.84800
Zr343      Zr  0.79613166  0.59842289  0.05436601     2.26400
Zr344      Zr  0.75197220  0.67652865  0.06797075     2.06300
Zr345      Zr  0.71172763  0.55922694  0.02317515     2.10000
Zr346      Zr  0.79522495  0.69518558  0.02908035     1.78800
O347        O  0.67678555  0.47514379  0.01974122    -0.93600
O348        O  0.83483583  0.77955631  0.03272013    -0.41400
O349        O  0.78693881  0.61897473  0.03100284    -0.78100
O350        O  0.80798730  0.67638260  0.05236274    -0.96800
O351        O  0.74186687  0.59962581  0.07020522    -0.90100
O352        O  0.72206459  0.53882543  0.04609693    -0.92900
C353        C  0.71937430  0.72169855  0.01179671     1.00900
C354        C  0.60020675  0.54622710  0.01636690     1.13800
C355        C  0.66099856  0.69953386  0.06642867     1.04600
O356        O  0.80599067  0.75964994  0.06443129    -0.95100
O357        O  0.80813769  0.67818112  0.08454333    -0.90800
O358        O  0.83032574  0.62658602  0.07725792    -0.83900
C359        C  0.83069262  0.65608653  0.08605847     1.11200
O360        O  0.58848808  0.51745858  0.06863527    -0.97000
Zr361      Zr  0.66831105  0.53960034  0.06238008     1.88900
O362        O  0.77456848  0.52426119  0.06583884    -0.73700
O363        O  0.74882060  0.69446204  0.09243097    -0.52900
O364        O  0.66466987  0.54005806  0.08763281    -0.97600
O365        O  0.60739782  0.46177916  0.05555098    -0.54800
O366        O  0.69629559  0.48700486  0.06961680    -0.74200
C367        C  0.73602321  0.48884994  0.06986754     0.98100
O368        O  0.88069755  0.63084052  0.05444938    -0.63000
O369        O  0.72364072  0.57280959  0.99825825    -0.57800
O370        O  0.82299515  0.56210199  0.03811254    -0.94500
O371        O  0.77793090  0.54421045  0.01865885    -0.92900
O372        O  0.82543000  0.68748747  0.00675228    -0.93300
O373        O  0.87997176  0.73210297  0.02884693    -0.92100
C374        C  0.81294313  0.54720967  0.02565042     1.17000
H375        H  0.71285688  0.63945774  0.01218191     0.32900
H376        H  0.83909684  0.69881269  0.05538508     0.43800
H377        H  0.72025870  0.50884054  0.04529069     0.37300
H378        H  0.65149876  0.61455458  0.06735949     0.33800
H379        H  0.84607171  0.79331230  0.02338361     0.25600
H380        H  0.75277444  0.72630163  0.09268457     0.31500
H381        H  0.65847286  0.56582323  0.08984085     0.37400
H382        H  0.80016564  0.68072036  0.00005381     0.31900
H383        H  0.75766472  0.59248736  0.99714970     0.30800
H384        H  0.65860608  0.46856833  0.01105438     0.32400
H385        H  0.60567065  0.44078826  0.06318364     0.31400
H386        H  0.88629503  0.70632715  0.03092519     0.35400
H387        H  0.89084623  0.63966057  0.04469200     0.28100
H388        H  0.58947413  0.65407506  0.03480065     0.32400
H389        H  0.57912414  0.53331493  0.06165123     0.35200
H390        H  0.71645586  0.54196189  0.99437753     0.27800
H391        H  0.89371134  0.66133857  0.05925364     0.40700
H392        H  0.79655835  0.77554396  0.07136511     0.30800
H393        H  0.80963171  0.78655198  0.03486459     0.38400
H394        H  0.62094815  0.45343989  0.04762518     0.30200
H395        H  0.71630886  0.67325569  0.09550209     0.30300
H396        H  0.57376768  0.61388913  0.04598277     0.30600
Zr397      Zr  0.37017344  0.34277430  0.81474017     2.17500
O398        O  0.38753636  0.42297713  0.81050006    -0.51800
O399        O  0.31990746  0.33016732  0.83482888    -0.75000
O400        O  0.30902133  0.34667773  0.80160009    -0.81800
O401        O  0.47675204  0.38746764  0.83795431    -0.83500
O402        O  0.28068311  0.28688788  0.78608560    -0.79200
O403        O  0.42244364  0.40449823  0.82953319    -0.90800
O404        O  0.29118267  0.25484147  0.84173435    -0.76800
O405        O  0.31146596  0.26491466  0.80987058    -0.86200
O406        O  0.38134763  0.29607901  0.83164604    -0.85900
O407        O  0.38663245  0.33020141  0.79136696    -0.72700
O408        O  0.44832389  0.35629056  0.81173784    -0.84800
Zr409      Zr  0.41263602  0.21464673  0.80000009     2.26400
Zr410      Zr  0.32823040  0.25065690  0.78680181     2.06300
Zr411      Zr  0.45846704  0.30836438  0.82865541     2.10000
Zr412      Zr  0.32224332  0.21804367  0.82658102     1.78800
O413        O  0.54334922  0.35131460  0.82939047    -0.93600
O414        O  0.23813842  0.17204042  0.82319188    -0.41400
O415        O  0.39905808  0.22968048  0.82344609    -0.78100
O416        O  0.33466691  0.19992943  0.80328502    -0.96800
O417        O  0.40498327  0.26328894  0.78344330    -0.90100
O418        O  0.47263620  0.29245616  0.80546087    -0.92900
C419        C  0.29607427  0.29579081  0.84315635     1.00900
C420        C  0.45810093  0.41413643  0.83692613     1.13800
C421        C  0.28106516  0.32194949  0.79188513     1.04600
O422        O  0.24905927  0.18466030  0.78540994    -0.95100
O423        O  0.32955210  0.19600251  0.77029818    -0.90800
O424        O  0.38012526  0.17354922  0.77822282    -0.83900
C425        C  0.35093743  0.17262366  0.76923327     1.11200
O426        O  0.48797764  0.42063568  0.78155586    -0.97000
Zr427      Zr  0.46375484  0.34055872  0.78864162     1.88900
O428        O  0.47948042  0.23400348  0.78558938    -0.73700
O429        O  0.32785571  0.27802493  0.76325048    -0.52900
O430        O  0.45030468  0.34372265  0.76388046    -0.97600
O431        O  0.54466989  0.39727862  0.79407244    -0.54800
O432        O  0.50822148  0.30839507  0.77766092    -0.74200
C433        C  0.50836390  0.26951503  0.77841084     0.98100
O434        O  0.38253654  0.13077993  0.80296950    -0.63000
O435        O  0.45352782  0.30073583  0.85384634    -0.57800
O436        O  0.45861031  0.19591482  0.81505675    -0.94500
O437        O  0.47909316  0.24543581  0.83358332    -0.92900
O438        O  0.33577659  0.19793917  0.84980628    -0.93300
O439        O  0.29177569  0.13484864  0.83066904    -0.92100
C440        C  0.47649486  0.20949937  0.82708701     1.17000
H441        H  0.37934272  0.30514239  0.84103901     0.32900
H442        H  0.31253781  0.16770078  0.80115032     0.43800
H443        H  0.50327971  0.29559106  0.80507185     0.37300
H444        H  0.38295294  0.35117747  0.78513759     0.33800
H445        H  0.22512241  0.16147039  0.83263221     0.25600
H446        H  0.29481084  0.26041620  0.76029982     0.31500
H447        H  0.48144970  0.35670466  0.75950264     0.37400
H448        H  0.34059137  0.22449027  0.85574026     0.31900
H449        H  0.43122903  0.26717778  0.85555097     0.30800
H450        H  0.55094747  0.36286964  0.83905374     0.32400
H451        H  0.55872783  0.37830326  0.79709415     0.31400
H452        H  0.31647966  0.12881519  0.82719175     0.35400
H453        H  0.37602146  0.12480854  0.81303297     0.28100
H454        H  0.36044740  0.42477823  0.81415918     0.32400
H455        H  0.51228322  0.42875130  0.77435436     0.35200
H456        H  0.48412385  0.30492048  0.85671263     0.27800
H457        H  0.35120994  0.11532252  0.79866736     0.40700
H458        H  0.23194384  0.19587844  0.77957654     0.30800
H459        H  0.22853299  0.19513149  0.82062151     0.38400
H460        H  0.54294668  0.41288820  0.80265457     0.30200
H461        H  0.33479208  0.31080206  0.76419548     0.30300
H462        H  0.38629171  0.42594728  0.80029315     0.30600
Zr463      Zr  0.99333114  0.33042835  0.69968862     2.17500
O464        O  0.06661972  0.40361747  0.69612278    -0.51800
O465        O  0.02685347  0.31406581  0.67918130    -0.75000
O466        O  0.05631838  0.34273961  0.71555820    -0.81800
O467        O  0.92461352  0.38031656  0.68101115    -0.83500
O468        O  0.02896657  0.28195086  0.73077427    -0.79200
O469        O  0.99605033  0.39834843  0.68936131    -0.90800
O470        O  0.97779911  0.23972499  0.67215086    -0.76800
O471        O  0.97464112  0.25243458  0.70488073    -0.86200
O472        O  0.93360737  0.28359650  0.68343865    -0.85900
O473        O  0.96677710  0.31850838  0.72346976    -0.72700
O474        O  0.92906564  0.34394668  0.70384410    -0.84800
Zr475      Zr  0.82432753  0.20413863  0.71690238     2.26400
Zr476      Zr  0.94575089  0.23887636  0.72835231     2.06300
Zr477      Zr  0.86941622  0.29642415  0.68755657     2.10000
Zr478      Zr  0.91451717  0.20533004  0.68888971     1.78800
O479        O  0.82262277  0.33443949  0.68560140    -0.93600
O480        O  0.95409889  0.16031896  0.69225275    -0.41400
O481        O  0.85037478  0.21789402  0.69319090    -0.78100
O482        O  0.88654915  0.18828453  0.71252890    -0.96800
O483        O  0.88277347  0.25268430  0.73275231    -0.90100
O484        O  0.84231489  0.28209098  0.71102802    -0.92900
C485        C  0.01444748  0.27994744  0.67064708     1.00900
C486        C  0.96862786  0.40936439  0.68317165     1.13800
C487        C  0.06128312  0.32035893  0.72571967     1.04600
O488        O  0.96367340  0.17557564  0.72852524    -0.95100
O489        O  0.89199173  0.18247158  0.74501720    -0.90800
O490        O  0.81867849  0.16436433  0.73884330    -0.83900
C491        C  0.84773836  0.16119252  0.74701471     1.11200
O492        O  0.96329971  0.40721606  0.73424486    -0.97000
Zr493      Zr  0.90118929  0.32994637  0.72727651     1.88900
O494        O  0.77840272  0.22651878  0.73116613    -0.73700
O495        O  0.96853135  0.26095921  0.75247733    -0.52900
O496        O  0.91435645  0.32615006  0.75201536    -0.97600
O497        O  0.88432811  0.39341314  0.72393900    -0.54800
O498        O  0.82403398  0.30257016  0.73731607    -0.74200
C499        C  0.78500029  0.26388445  0.73728940     0.98100
O500        O  0.77052434  0.11978350  0.71589490    -0.63000
O501        O  0.87078572  0.29094126  0.66233349    -0.57800
O502        O  0.75920319  0.18427513  0.70197804    -0.94500
O503        O  0.78699188  0.23268659  0.68311120    -0.92900
O504        O  0.87704146  0.18448918  0.66623083    -0.93300
O505        O  0.86185280  0.12227108  0.68486799    -0.92100
C506        C  0.75440825  0.19710364  0.68985068     1.17000
H507        H  0.94327109  0.29229408  0.67392444     0.32900
H508        H  0.87666235  0.15603280  0.71473169     0.43800
H509        H  0.81535750  0.28617286  0.71147579     0.37300
H510        H  0.99120400  0.33959792  0.72963029     0.33800
H511        H  0.95914567  0.15222529  0.68274995     0.25600
H512        H  0.98997556  0.24908151  0.75477694     0.31500
H513        H  0.90023394  0.34306765  0.75656645     0.37400
H514        H  0.85564705  0.19740199  0.66615488     0.31900
H515        H  0.83760225  0.27234292  0.65960386     0.30800
H516        H  0.82094130  0.33892296  0.67549023     0.32400
H517        H  0.87282686  0.39728145  0.73306889     0.31400
H518        H  0.83353356  0.11482746  0.69030946     0.35400
H519        H  0.76542056  0.11202306  0.70588883     0.28100
H520        H  0.09103603  0.39494339  0.69468639     0.32400
H521        H  0.95242369  0.41484363  0.74292304     0.35200
H522        H  0.88077453  0.32296225  0.65893622     0.27800
H523        H  0.78884436  0.10513660  0.71901743     0.40700
H524        H  0.99003786  0.18598861  0.73508146     0.30800
H525        H  0.98574986  0.18320653  0.69555154     0.38400
H526        H  0.85650337  0.38003216  0.71787278     0.30200
H527        H  0.98834853  0.29548420  0.75242826     0.30300
H528        H  0.07424694  0.42043668  0.70510488     0.30600
Zr529      Zr  0.99322972  0.63530519  0.48343670     2.17500
O530        O  0.06663414  0.64170378  0.49112504    -0.51800
O531        O  0.01896596  0.68389447  0.50440784    -0.75000
O532        O  0.05952123  0.68640500  0.46863991    -0.81800
O533        O  0.92306957  0.51214488  0.49922633    -0.83500
O534        O  0.03693895  0.72786381  0.45505867    -0.79200
O535        O  0.99549479  0.56781800  0.49206441    -0.90800
O536        O  0.96561151  0.70492568  0.51043112    -0.76800
O537        O  0.97325052  0.69373522  0.47851506    -0.86200
O538        O  0.92765227  0.61669024  0.49807374    -0.85900
O539        O  0.97497865  0.62604979  0.45894518    -0.72700
O540        O  0.93281789  0.55783242  0.47738316    -0.84800
Zr541      Zr  0.82950114  0.59198465  0.46195938     2.26400
Zr542      Zr  0.95317947  0.68438458  0.45441721     2.06300
Zr543      Zr  0.86728597  0.53949378  0.49198237     2.10000
Zr544      Zr  0.90673631  0.67469576  0.49257258     1.78800
O545        O  0.82522665  0.45421895  0.49214755    -0.93600
O546        O  0.94327726  0.75965597  0.49113260    -0.41400
O547        O  0.84670323  0.59801699  0.48633364    -0.78100
O548        O  0.88749773  0.66976601  0.46829906    -0.96800
O549        O  0.89446593  0.60766030  0.44803227    -0.90100
O550        O  0.84813117  0.53273619  0.46793670    -0.92900
C551        C  0.00325966  0.70382401  0.51254216     1.00900
C552        C  0.96766458  0.52836588  0.49768847     1.13800
C553        C  0.06755013  0.71859244  0.45974417     1.04600
O554        O  0.96358344  0.76244094  0.45729551    -0.95100
O555        O  0.90483518  0.68382142  0.43546988    -0.90800
O556        O  0.83096280  0.62462260  0.43899520    -0.83900
C557        C  0.86241020  0.65794317  0.43156175     1.11200
O558        O  0.97482442  0.53177898  0.44823072    -0.97000
Zr559      Zr  0.91259300  0.54866895  0.45340957     1.88900
O560        O  0.78872866  0.52580876  0.44668393    -0.73700
O561        O  0.98794644  0.70360479  0.43124599    -0.52900
O562        O  0.93434712  0.56404519  0.42899543    -0.97600
O563        O  0.89639474  0.46950070  0.45824158    -0.54800
O564        O  0.83922247  0.50006708  0.44130953    -0.74200
C565        C  0.79911322  0.49739488  0.44074299     0.98100
O566        O  0.77502485  0.62174532  0.46172771    -0.63000
O567        O  0.85864990  0.54235710  0.51702961    -0.57800
O568        O  0.76143682  0.54143731  0.47529868    -0.94500
O569        O  0.78121135  0.51041254  0.49349004    -0.92900
O570        O  0.86185030  0.65121463  0.51407025    -0.93300
O571        O  0.85002617  0.70119672  0.49424709    -0.92100
C572        C  0.75109398  0.51567146  0.48616129     1.17000
H573        H  0.93491359  0.61657200  0.50776826     0.32900
H574        H  0.87724776  0.69180704  0.46601415     0.43800
H575        H  0.82204831  0.50163476  0.46671748     0.37300
H576        H  0.00110613  0.63120194  0.45321090     0.33800
H577        H  0.94530310  0.77012945  0.50086874     0.25600
H578        H  0.00903963  0.73795410  0.43113370     0.31500
H579        H  0.95580573  0.59827643  0.42847240     0.37400
H580        H  0.87437000  0.68031083  0.51959621     0.31900
H581        H  0.83800046  0.55590006  0.51819716     0.30800
H582        H  0.81272673  0.44541547  0.50170420     0.32400
H583        H  0.88365118  0.45213395  0.44947815     0.31400
H584        H  0.82227181  0.67706741  0.48926607     0.35400
H585        H  0.76451790  0.61974175  0.47146568     0.28100
H586        H  0.08837428  0.67549608  0.49264089     0.32400
H587        H  0.99581714  0.54385678  0.45636358     0.35200
H588        H  0.83920621  0.50923656  0.51989683     0.27800
H589        H  0.79461322  0.65577308  0.45998343     0.40700
H590        H  0.99419844  0.78051890  0.46193630     0.30800
H591        H  0.97603545  0.77067352  0.48841306     0.38400
H592        H  0.86971000  0.45656217  0.46478438     0.30200
H593        H  0.00876660  0.69006081  0.43072149     0.30300
H594        H  0.07948438  0.63340772  0.48300504     0.30600
Zr595      Zr  0.38097299  0.00263421  0.37143663     2.17500
O596        O  0.38647799  0.93207441  0.36782430    -0.51800
O597        O  0.33343003  0.96832022  0.35061967    -0.75000
O598        O  0.33019864  0.93706548  0.38665748    -0.81800
O599        O  0.49892739  0.07358046  0.35308073    -0.83500
O600        O  0.30509600  0.96597762  0.40392049    -0.79200
O601        O  0.44769924  0.00187261  0.36198623    -0.90800
O602        O  0.30765412  0.01630808  0.34294497    -0.76800
O603        O  0.31947428  0.01856452  0.37585260    -0.86200
O604        O  0.39444774  0.06297948  0.35507515    -0.85900
O605        O  0.39250797  0.02842154  0.39530942    -0.72700
O606        O  0.45720071  0.06828316  0.37586166    -0.84800
Zr607      Zr  0.41621604  0.16966504  0.38805931     2.26400
Zr608      Zr  0.33162089  0.04711283  0.39928685     2.06300
Zr609      Zr  0.47023127  0.12895738  0.35964573     2.10000
Zr610      Zr  0.33282622  0.07913191  0.35973665     1.78800
O611        O  0.55514536  0.17084439  0.36048681    -0.93600
O612        O  0.24795162  0.03671557  0.36149348    -0.41400
O613        O  0.40818549  0.14521337  0.36425628    -0.78100
O614        O  0.33960583  0.10616337  0.38335976    -0.96800
O615        O  0.40713289  0.11102914  0.40397975    -0.90100
O616        O  0.47819774  0.15430993  0.38302098    -0.92900
C617        C  0.31248637  0.98020057  0.34163460     1.00900
C618        C  0.48517940  0.02970455  0.35549887     1.13800
C619        C  0.30785898  0.93287271  0.39796072     1.04600
O620        O  0.25262925  0.02930409  0.39375909    -0.95100
O621        O  0.33829023  0.10125139  0.41756213    -0.90800
O622        O  0.38499143  0.17599791  0.41037542    -0.83900
C623        C  0.35833695  0.14572143  0.41942665     1.11200
O624        O  0.48668642  0.03525277  0.40628709    -0.97000
Zr625      Zr  0.46812522  0.09527600  0.39922506     1.88900
O626        O  0.48339010  0.21770489  0.40224572    -0.73700
O627        O  0.29647510  0.02118550  0.42227480    -0.52900
O628        O  0.45589508  0.08265206  0.42417907    -0.97600
O629        O  0.54876151  0.11600437  0.39461808    -0.54800
O630        O  0.51445353  0.17279972  0.40907708    -0.74200
C631        C  0.51435870  0.21169221  0.40840325     0.98100
O632        O  0.38136756  0.21947734  0.38570934    -0.63000
O633        O  0.46985747  0.13606701  0.33447803    -0.57800
O634        O  0.46305307  0.23662722  0.37390479    -0.94500
O635        O  0.49694750  0.21535914  0.35689910    -0.92900
O636        O  0.35035424  0.11926740  0.33741224    -0.93300
O637        O  0.29809962  0.12853301  0.35636994    -0.92100
C638        C  0.48979518  0.24608582  0.36335263     1.17000
H639        H  0.39474558  0.05358355  0.34560468     0.32900
H640        H  0.31655915  0.11531380  0.38525508     0.43800
H641        H  0.50865560  0.18185912  0.38354844     0.37300
H642        H  0.39057324  0.00459561  0.40155860     0.33800
H643        H  0.23689485  0.03250069  0.35176704     0.25600
H644        H  0.26506899  0.99378245  0.42080181     0.31500
H645        H  0.42238040  0.05917933  0.42518853     0.37400
H646        H  0.36705754  0.10637461  0.33209716     0.31900
H647        H  0.50133800  0.16221531  0.33216664     0.30800
H648        H  0.56509355  0.17116007  0.35076497     0.32400
H649        H  0.56427854  0.14903308  0.39148992     0.31400
H650        H  0.32391791  0.16077501  0.35802409     0.35400
H651        H  0.37799559  0.22202711  0.37557860     0.28100
H652        H  0.35474244  0.90707406  0.36525929     0.32400
H653        H  0.50867806  0.04893342  0.41414674     0.35200
H654        H  0.46974263  0.10784747  0.33089969     0.27800
H655        H  0.34889293  0.20009169  0.38905457     0.40700
H656        H  0.23261644  0.99638925  0.39675211     0.30800
H657        H  0.23956883  0.00482380  0.36462656     0.38400
H658        H  0.54725934  0.09822769  0.38616282     0.30200
H659        H  0.31463641  0.00863102  0.42695441     0.30300
H660        H  0.39261372  0.92282307  0.37703532     0.30600
Zr661      Zr  0.34805836  0.97878732  0.64928205     2.17500
O662        O  0.41961409  0.05244476  0.65397338    -0.51800
O663        O  0.33318505  0.01115008  0.67028457    -0.75000
O664        O  0.36046131  0.04321337  0.63389602    -0.81800
O665        O  0.39716051  0.90832797  0.66719592    -0.83500
O666        O  0.29491615  0.01874972  0.62105592    -0.79200
O667        O  0.41705661  0.97906929  0.65758904    -0.90800
O668        O  0.25783844  0.96495627  0.67681996    -0.76800
O669        O  0.27025459  0.96144171  0.64499631    -0.86200
O670        O  0.30155340  0.91756621  0.66537757    -0.85900
O671        O  0.33373829  0.95478453  0.62530068    -0.72700
O672        O  0.36080227  0.91458395  0.64414960    -0.84800
Zr673      Zr  0.21971960  0.81106050  0.63197015     2.26400
Zr674      Zr  0.25406244  0.93445043  0.62141549     2.06300
Zr675      Zr  0.31409983  0.85339270  0.66025620     2.10000
Zr676      Zr  0.22343907  0.90002988  0.66071444     1.78800
O677        O  0.35256628  0.80672916  0.65920245    -0.93600
O678        O  0.17804135  0.93878429  0.65659022    -0.41400
O679        O  0.23558815  0.83569166  0.65577261    -0.78100
O680        O  0.20424803  0.87335796  0.63708700    -0.96800
O681        O  0.26721308  0.87136166  0.61627682    -0.90100
O682        O  0.29775981  0.82839222  0.63664176    -0.92900
C683        C  0.29864392  0.00044711  0.67850160     1.00900
C684        C  0.42716653  0.95168707  0.66428537     1.13800
C685        C  0.33501366  0.05032919  0.62528838     1.04600
O686        O  0.18899402  0.94951724  0.62198227    -0.95100
O687        O  0.20071701  0.88182291  0.60388532    -0.90800
O688        O  0.18031439  0.80749153  0.61015465    -0.83900
C689        C  0.17963122  0.83745063  0.60169906     1.11200
O690        O  0.42278236  0.95153136  0.61445864    -0.97000
Zr691      Zr  0.34461543  0.88916328  0.62057390     1.88900
O692        O  0.24094808  0.76709855  0.61643075    -0.73700
O693        O  0.27733817  0.96456703  0.59784933    -0.52900
O694        O  0.34489620  0.90897590  0.59616593    -0.97600
O695        O  0.40360052  0.86592562  0.62327967    -0.54800
O696        O  0.31464398  0.81472282  0.60858021    -0.74200
C697        C  0.27652634  0.77525992  0.60901405     0.98100
O698        O  0.13638373  0.75514850  0.63410219    -0.63000
O699        O  0.31201638  0.84911170  0.68551047    -0.57800
O700        O  0.20107516  0.74429499  0.64642126    -0.94500
O701        O  0.25095577  0.77068697  0.66485276    -0.92900
O702        O  0.20325727  0.86806597  0.68415076    -0.93300
O703        O  0.14122313  0.84493902  0.66500480    -0.92100
C704        C  0.21480746  0.73854379  0.65830455     1.17000
H705        H  0.31042736  0.92659632  0.67490303     0.32900
H706        H  0.17197479  0.86355068  0.63522352     0.43800
H707        H  0.30151103  0.80130240  0.63556249     0.37300
H708        H  0.35431534  0.97976794  0.61913950     0.33800
H709        H  0.16326054  0.93755341  0.66565288     0.25600
H710        H  0.26494248  0.98608731  0.59632833     0.31500
H711        H  0.36262259  0.89615664  0.59138052     0.37400
H712        H  0.20390405  0.83835332  0.68376493     0.31900
H713        H  0.27861121  0.82890849  0.68786066     0.30800
H714        H  0.38310795  0.82749128  0.65475684     0.32400
H715        H  0.40763280  0.85628381  0.61387781     0.31400
H716        H  0.13678405  0.81437825  0.66187049     0.35400
H717        H  0.12932758  0.75401875  0.64414265     0.28100
H718        H  0.41005540  0.07619522  0.65553781     0.32400
H719        H  0.43264701  0.93987866  0.60640137     0.35200
H720        H  0.32646407  0.82984470  0.68779127     0.27800
H721        H  0.12045194  0.77088322  0.62991747     0.40700
H722        H  0.20264197  0.98227910  0.62518589     0.30800
H723        H  0.20137976  0.97229833  0.65530288     0.38400
H724        H  0.38789778  0.83636081  0.62865249     0.30200
H725        H  0.31165079  0.98504755  0.59814146     0.30300
H726        H  0.43747211  0.06178257  0.64514969     0.30600
Zr727      Zr  0.36209604  0.35710743  0.53492662     2.17500
O728        O  0.44423732  0.37849747  0.53568788    -0.51800
O729        O  0.34622607  0.29574377  0.51793231    -0.75000
O730        O  0.37926734  0.31141348  0.55157022    -0.81800
O731        O  0.39758751  0.45724097  0.50867491    -0.83500
O732        O  0.32839919  0.29335921  0.56951512    -0.79200
O733        O  0.41920629  0.40797696  0.51853241    -0.90800
O734        O  0.27063206  0.26314784  0.51148961    -0.76800
O735        O  0.28690943  0.29733489  0.54200059    -0.86200
O736        O  0.31059137  0.35889912  0.51783594    -0.85900
O737        O  0.35233827  0.38189366  0.55752179    -0.72700
O738        O  0.37157348  0.43454209  0.53505469    -0.84800
Zr739      Zr  0.23110098  0.39697988  0.54864859     2.26400
Zr740      Zr  0.27578703  0.32218175  0.56439311     2.06300
Zr741      Zr  0.31868392  0.43550163  0.51820239     2.10000
Zr742      Zr  0.23524188  0.29941825  0.52515188     1.78800
O743        O  0.35959103  0.51968672  0.51404732    -0.93600
O744        O  0.19056804  0.21796525  0.53257872    -0.41400
O745        O  0.24293356  0.37562477  0.52570954    -0.78100
O746        O  0.22069251  0.31965702  0.54790094    -0.96800
O747        O  0.28484199  0.39860655  0.56510839    -0.90100
O748        O  0.30570049  0.45725477  0.54075285    -0.92900
C749        C  0.31122712  0.26727100  0.51048870     1.00900
C750        C  0.42616938  0.44131555  0.51032679     1.13800
C751        C  0.36301094  0.29338799  0.56354134     1.04600
O752        O  0.22293495  0.23836521  0.56709491    -0.95100
O753        O  0.21428243  0.31710712  0.57937708    -0.90800
O754        O  0.19219400  0.36768281  0.57103971    -0.83900
C755        C  0.19034511  0.33802548  0.58010195     1.11200
O756        O  0.44043246  0.48463420  0.56282214    -0.97000
Zr757      Zr  0.35914557  0.45808821  0.55735468     1.88900
O758        O  0.24957441  0.46843364  0.56089099    -0.73700
O759        O  0.29802809  0.33412278  0.58880725    -0.52900
O760        O  0.37436167  0.46492547  0.58221563    -0.97600
O761        O  0.41090703  0.53571811  0.54777288    -0.54800
O762        O  0.32637861  0.50429623  0.56662157    -0.74200
C763        C  0.28629552  0.50169707  0.56651816     0.98100
O764        O  0.14644665  0.36128639  0.54687765    -0.63000
O765        O  0.30436519  0.42038041  0.49342128    -0.57800
O766        O  0.20782953  0.43617975  0.53224939    -0.94500
O767        O  0.25458503  0.45335381  0.51312816    -0.92900
O768        O  0.21105042  0.29570185  0.50108543    -0.93300
O769        O  0.15244249  0.27161514  0.52192794    -0.92100
C770        C  0.21934760  0.45125278  0.51981190     1.17000
H771        H  0.31828711  0.35304571  0.50865528     0.32900
H772        H  0.18937869  0.29717121  0.55080346     0.43800
H773        H  0.30697487  0.48711768  0.54013905     0.37300
H774        H  0.37551877  0.38298640  0.56384070     0.33800
H775        H  0.17505422  0.20046541  0.52403448     0.25600
H776        H  0.29361589  0.30377941  0.59220492     0.31500
H777        H  0.34342792  0.44531410  0.58659000     0.37400
H778        H  0.23753980  0.32289680  0.49650775     0.31900
H779        H  0.31809322  0.45188055  0.48915423     0.30800
H780        H  0.34164033  0.53150811  0.51919683     0.32400
H781        H  0.39102701  0.55008603  0.54649724     0.31400
H782        H  0.15045287  0.30038671  0.52058823     0.35400
H783        H  0.13935567  0.35472369  0.53687446     0.28100
H784        H  0.44516044  0.34928164  0.53406066     0.32400
H785        H  0.45256304  0.47635072  0.55453192     0.35200
H786        H  0.32522876  0.40849233  0.49043253     0.27800
H787        H  0.13362572  0.32981523  0.55110670     0.40700
H788        H  0.19289306  0.23271709  0.56318195     0.30800
H789        H  0.21425335  0.20878243  0.53465490     0.38400
H790        H  0.41786726  0.52995231  0.53820892     0.30200
H791        H  0.33220673  0.35546654  0.58876308     0.30300
H792        H  0.45422355  0.38722686  0.54544222     0.30600
C793        C  0.34029402  0.15570994  0.60812316    -0.11800
C794        C  0.38277268  0.17395967  0.60093394     0.14700
C795        C  0.41265562  0.15571297  0.60353685     0.01600
C796        C  0.39787922  0.11745282  0.61255617    -0.16200
C797        C  0.35376727  0.09694838  0.61891741    -0.11000
C798        C  0.32541885  0.11736325  0.61707699     0.08300
C799        C  0.39202533  0.20929215  0.59007581     0.09400
S800        S  0.46835254  0.17750484  0.59503123    -0.25300
H801        H  0.41971359  0.10179241  0.61393282     0.19600
S802        S  0.26991709  0.09416927  0.62591851    -0.31000
H803        H  0.31787695  0.17038959  0.60620887     0.09900
C804        C  0.38071126  0.19612495  0.57605219     0.03100
C805        C  0.37717714  0.22713934  0.56675803    -0.13300
C806        C  0.38456907  0.27066392  0.57133803    -0.09000
C807        C  0.40126308  0.28567424  0.58492896     0.06600
C808        C  0.40411269  0.25462951  0.59422721    -0.14100
S809        S  0.36582586  0.13808112  0.57039137    -0.31000
H810        H  0.36444464  0.21583491  0.55631883     0.10800
S811        S  0.41638582  0.34303714  0.59118992    -0.28100
H812        H  0.41336829  0.26495885  0.60495648     0.08100
H813        H  0.25849518  0.12738840  0.62094667     0.26500
H814        H  0.35616506  0.14334893  0.55649086     0.21300
H815        H  0.42904565  0.36485091  0.57808454     0.26600
H816        H  0.47558415  0.22232670  0.59191636     0.15400
C817        C  0.29894956  0.70112385  0.58314702    -0.11800
C818        C  0.27302441  0.65672181  0.58925286     0.14700
C819        C  0.24554786  0.65112219  0.60108867     0.01600
C820        C  0.24673246  0.69030545  0.60701409    -0.16200
C821        C  0.27376498  0.73523577  0.60121823    -0.11000
C822        C  0.29878198  0.74020319  0.58877342     0.08300
C823        C  0.27628975  0.61714663  0.58330128     0.09400
S824        S  0.20852994  0.59513296  0.60923022    -0.25300
H825        H  0.22683172  0.68558094  0.61643063     0.19600
S826        S  0.32995703  0.79448266  0.57927137    -0.31000
H827        H  0.31925667  0.70524088  0.57386298     0.09900
C828        C  0.25490223  0.59676816  0.57058704     0.03100
C829        C  0.25790951  0.55847770  0.56550916    -0.13300
C830        C  0.28235639  0.54047804  0.57282204    -0.09000
C831        C  0.30361346  0.56104106  0.58561087     0.06600
C832        C  0.30055587  0.59922377  0.59065798    -0.14100
S833        S  0.22317918  0.61908395  0.56096319    -0.31000
H834        H  0.24184480  0.54295432  0.55567414     0.10800
S835        S  0.33347440  0.53914665  0.59622909    -0.28100
H836        H  0.31667823  0.61475809  0.60049869     0.08100
H837        H  0.29888258  0.81054356  0.58245378     0.26500
H838        H  0.21035271  0.58772938  0.54976134     0.21300
H839        H  0.30233110  0.49171854  0.59332611     0.26600
H840        H  0.19976003  0.56790620  0.59720441     0.15400
C841        C  0.29159313  0.18755495  0.47936642    -0.11800
C842        C  0.33709608  0.20666482  0.47417766     0.14700
C843        C  0.37451148  0.24073656  0.48206800     0.01600
C844        C  0.36527092  0.25722905  0.49442821    -0.16200
C845        C  0.31930677  0.24067027  0.49921685    -0.11000
C846        C  0.28235899  0.20323381  0.49185954     0.08300
C847        C  0.34383515  0.19145924  0.46027560     0.09400
S848        S  0.43461507  0.26600119  0.47665906    -0.25300
H849        H  0.39438418  0.28466816  0.50003888     0.19600
S850        S  0.22277239  0.17293345  0.49786517    -0.31000
H851        H  0.26288318  0.16028516  0.47355198     0.09900
C852        C  0.34155584  0.14802161  0.45836960     0.03100
C853        C  0.34580822  0.13397258  0.44494548    -0.13300
C854        C  0.35200304  0.16227062  0.43323864    -0.09000
C855        C  0.35372272  0.20572730  0.43524916     0.06600
C856        C  0.35023171  0.21999435  0.44870563    -0.14100
S857        S  0.33459270  0.11109883  0.47311549    -0.31000
H858        H  0.34512801  0.10101065  0.44361015     0.10800
S859        S  0.35748750  0.24331116  0.42110877    -0.28100
H860        H  0.35118545  0.25308983  0.45014737     0.08100
H861        H  0.23488043  0.17400263  0.51192220     0.26500
H862        H  0.33085190  0.07291151  0.46553077     0.21300
H863        H  0.32526499  0.20615603  0.41280705     0.26600
H864        H  0.42908085  0.22805565  0.46859758     0.15400
C865        C  0.03278581  0.74411274  0.55002879    -0.11800
C866        C  0.08133536  0.77270658  0.54932629     0.14700
C867        C  0.10427143  0.77822973  0.53645905     0.01600
C868        C  0.07821948  0.75481222  0.52467680    -0.16200
C869        C  0.02955169  0.72616885  0.52537904    -0.11000
C870        C  0.00682532  0.72032061  0.53832658     0.08300
C871        C  0.10715588  0.79094441  0.56253046     0.09400
S872        S  0.16656944  0.81438391  0.53437549    -0.25300
H873        H  0.09601340  0.75954508  0.51483290     0.19600
S874        S  0.94539090  0.68041771  0.54092019    -0.31000
H875        H  0.01521089  0.73861264  0.55994866     0.09900
C876        C  0.10691347  0.82770298  0.56994553     0.03100
C877        C  0.13041834  0.84197267  0.58273507    -0.13300
C878        C  0.15423295  0.82020835  0.58830027    -0.09000
C879        C  0.15497295  0.78396297  0.58056250     0.06600
C880        C  0.13098555  0.76941084  0.56797848    -0.14100
S881        S  0.07789375  0.85730081  0.56291896    -0.31000
H882        H  0.13027422  0.87021305  0.58843049     0.10800
S883        S  0.18842086  0.75687444  0.58552943    -0.28100
H884        H  0.13149914  0.74139875  0.56222476     0.08100
H885        H  0.94300258  0.64610592  0.53175572     0.26500
H886        H  0.08502327  0.88630840  0.57444253     0.21300
H887        H  0.22672649  0.79924381  0.58990401     0.26600
H888        H  0.17380524  0.84419287  0.54566982     0.15400
C889        C  0.17621688  0.81722293  0.44415038    -0.11800
C890        C  0.18836765  0.79237665  0.43480419     0.14700
C891        C  0.16509798  0.74309057  0.43540510     0.01600
C892        C  0.12788342  0.71955988  0.44466206    -0.16200
C893        C  0.11375290  0.74439666  0.45333810    -0.11000
C894        C  0.13878146  0.79364036  0.45335207     0.08300
C895        C  0.22203592  0.81932705  0.42374301     0.09400
S896        S  0.17943910  0.70852602  0.42408108    -0.25300
H897        H  0.10803259  0.68162950  0.44449434     0.19600
S898        S  0.12189550  0.82626754  0.46472934    -0.31000
H899        H  0.19466697  0.85511717  0.44371414     0.09900
C900        C  0.20671275  0.82209442  0.41027770     0.03100
C901        C  0.23800294  0.85619112  0.40101133    -0.13300
C902        C  0.28375276  0.88768470  0.40509145    -0.09000
C903        C  0.29988355  0.88230882  0.41814501     0.06600
C904        C  0.26881779  0.84834395  0.42737679    -0.14100
S905        S  0.14615691  0.78620686  0.40547310    -0.31000
H906        H  0.22568976  0.86132858  0.39110545     0.10800
S907        S  0.35856443  0.92090487  0.42402288    -0.28100
H908        H  0.28046854  0.84625463  0.43773581     0.08100
H909        H  0.15258717  0.87081193  0.45919669     0.26500
H910        H  0.15041616  0.80374408  0.39189115     0.21300
H911        H  0.37866482  0.92961258  0.41068769     0.26600
H912        H  0.22673383  0.74241992  0.42242176     0.15400
C913        C  0.59503696  0.33200613  0.42290384    -0.11800
C914        C  0.63799722  0.33905161  0.41790896     0.14700
C915        C  0.63975766  0.30337159  0.41035480     0.01600
C916        C  0.59902380  0.26082163  0.40843028    -0.16200
C917        C  0.55595593  0.25366219  0.41333693    -0.11000
C918        C  0.55383613  0.28983097  0.42054723     0.08300
C919        C  0.68106575  0.38060626  0.42251469     0.09400
S920        S  0.69274723  0.31051984  0.40264801    -0.25300
H921        H  0.60061055  0.23394111  0.40236358     0.19600
S922        S  0.49994944  0.28428504  0.42694204    -0.31000
H923        H  0.59378927  0.35916273  0.42891213     0.09900
C924        C  0.69249118  0.42643657  0.41873500     0.03100
C925        C  0.73235561  0.46442715  0.42445935    -0.13300
C926        C  0.76098188  0.45705828  0.43368857    -0.09000
C927        C  0.74966418  0.41086803  0.43711374     0.06600
C928        C  0.71010571  0.37337106  0.43147559    -0.14100
S929        S  0.65689628  0.43634462  0.40650742    -0.31000
H930        H  0.74109524  0.49990252  0.42187960     0.10800
S931        S  0.78158941  0.39708390  0.44954026    -0.28100
H932        H  0.70085609  0.33804383  0.43449557     0.08100
H933        H  0.47721227  0.23557212  0.42907049     0.26500
H934        H  0.68234344  0.48555285  0.40697146     0.21300
H935        H  0.77843820  0.42529354  0.45990828     0.26600
H936        H  0.71377455  0.35916312  0.40058782     0.15400
C937        C  0.15282833  0.51461938  0.51084272    -0.11800
C938        C  0.10758650  0.47630932  0.50872724     0.14700
C939        C  0.10239180  0.43096025  0.50820497     0.01600
C940        C  0.14129477  0.42500880  0.51009686    -0.16200
C941        C  0.18590517  0.46288481  0.51297075    -0.11000
C942        C  0.19152081  0.50834962  0.51321864     0.08300
C943        C  0.06678020  0.48445424  0.50693503     0.09400
S944        S  0.04649649  0.37856867  0.50628460    -0.25300
H945        H  0.13592987  0.38974872  0.51042097     0.19600
S946        S  0.24626436  0.55923207  0.51757258    -0.31000
H947        H  0.15787154  0.54973363  0.51103430     0.09900
C948        C  0.05439183  0.50750944  0.51708461     0.03100
C949        C  0.01725312  0.51622398  0.51456276    -0.13300
C950        C  0.99121035  0.50192759  0.50221287    -0.09000
C951        C  0.00222942  0.47682354  0.49243634     0.06600
C952        C  0.03976282  0.46890966  0.49478258    -0.14100
S953        S  0.08632078  0.52693574  0.53319408    -0.31000
H954        H  0.01031821  0.53697876  0.52187332     0.10800
S955        S  0.97143629  0.45667473  0.47627975    -0.28100
H956        H  0.04858879  0.45120325  0.48688110     0.08100
H957        H  0.27428616  0.54152848  0.51252437     0.26500
H958        H  0.05917653  0.54427222  0.53923717     0.21300
H959        H  0.92904318  0.45038035  0.48159309     0.26600
H960        H  0.02112820  0.39504073  0.51383152     0.15400
C961        C  0.62215499  0.47200592  0.48222781    -0.11800
C962        C  0.60917601  0.47787492  0.49564368     0.14700
C963        C  0.64075397  0.48539409  0.50668173     0.01600
C964        C  0.68652368  0.49459867  0.50371961    -0.16200
C965        C  0.70047267  0.49254901  0.49004822    -0.11000
C966        C  0.66615857  0.47726458  0.47946533     0.08300
C967        C  0.56207875  0.47410872  0.49760345     0.09400
S968        S  0.62454477  0.48226435  0.52472442    -0.25300
H969        H  0.71161541  0.50465762  0.51207216     0.19600
S970        S  0.67665105  0.46426512  0.46204688    -0.31000
H971        H  0.59783864  0.46350796  0.47371899     0.09900
C972        C  0.55588919  0.50921407  0.50417406     0.03100
C973        C  0.51030318  0.50100119  0.50696388    -0.13300
C974        C  0.47066234  0.45987557  0.50243971    -0.09000
C975        C  0.47748949  0.42837889  0.49416907     0.06600
C976        C  0.52240265  0.43494587  0.49218420    -0.14100
S977        S  0.60572944  0.56462303  0.50887918    -0.31000
H978        H  0.50553674  0.52533114  0.51335152     0.10800
S979        S  0.42920867  0.37699951  0.48668881    -0.28100
H980        H  0.52622701  0.40852533  0.48659099     0.08100
H981        H  0.71042439  0.45218633  0.46586948     0.26500
H982        H  0.58042768  0.58598133  0.51351078     0.21300
H983        H  0.39785005  0.39418988  0.48681301     0.26600
H984        H  0.57629920  0.45311731  0.52275771     0.15400
C985        C  0.11259370  0.27855936  0.61155931    -0.11800
C986        C  0.11143405  0.31629367  0.61787983     0.14700
C987        C  0.13377408  0.36047082  0.61123974     0.01600
C988        C  0.15798368  0.36619208  0.59873883    -0.16200
C989        C  0.16005548  0.32863376  0.59252351    -0.11000
C990        C  0.13585152  0.28397370  0.59892908     0.08300
C991        C  0.08670046  0.30800360  0.63138919     0.09400
S992        S  0.13332774  0.41104217  0.61822868    -0.25300
H993        H  0.17621973  0.40060043  0.59398036     0.19600
S994        S  0.13172597  0.23207672  0.59132350    -0.31000
H995        H  0.09479545  0.24438619  0.61647864     0.09900
C996        C  0.03766304  0.28193459  0.63213055     0.03100
C997        C  0.01550425  0.27217878  0.64512621    -0.13300
C998        C  0.04115215  0.28852180  0.65750566    -0.09000
C999        C  0.09039736  0.31513506  0.65671333     0.06600
C1000       C  0.11256020  0.32465926  0.64369018    -0.14100
S1001       S  0.00317072  0.26243633  0.61646999    -0.31000
H1002       H  0.97776558  0.25264326  0.64562841     0.10800
S1003       S  0.12688513  0.33632774  0.67189107    -0.28100
H1004       H  0.15030920  0.34447346  0.64314291     0.08100
H1005       H  0.12870700  0.24483297  0.57756903     0.26500
H1006       H  0.95937423  0.24555161  0.62287458     0.21300
H1007       H  0.09771470  0.29786337  0.68037259     0.26600
H1008       H  0.09089921  0.38652585  0.62548435     0.15400
C1009       C  0.04811484  0.53936915  0.68714114    -0.11800
C1010       C  0.06188477  0.55450922  0.67340774     0.14700
C1011       C  0.03713457  0.52225337  0.66256494     0.01600
C1012       C  0.00326855  0.47539108  0.66572902    -0.16200
C1013       C  0.99108297  0.46022210  0.67954033    -0.11000
C1014       C  0.01231391  0.49378643  0.69021197     0.08300
C1015       C  0.10387687  0.60246420  0.67083501     0.09400
S1016       S  0.04745570  0.53856673  0.64448018    -0.25300
H1017       H  0.98775459  0.45028822  0.65738186     0.19600
S1018       S  0.99646917  0.47942416  0.70819255    -0.31000
H1019       H  0.06619490  0.56289222  0.69565999     0.09900
C1020       C  0.10791240  0.64406772  0.67652158     0.03100
C1021       C  0.14742583  0.68792397  0.67346471    -0.13300
C1022       C  0.18356804  0.69196553  0.66481692    -0.09000
C1023       C  0.18041199  0.65038403  0.65957963     0.06600
C1024       C  0.14135201  0.60652770  0.66276250    -0.14100
S1025       S  0.06110014  0.64266090  0.68660786    -0.31000
H1026       H  0.14853592  0.71965777  0.67701251     0.10800
S1027       S  0.22411387  0.65122161  0.64816279    -0.28100
H1028       H  0.13976984  0.57519163  0.65863410     0.08100
H1029       H  0.95027350  0.44455480  0.70543164     0.26500
H1030       H  0.08718896  0.68811682  0.69207586     0.21300
H1031       H  0.26078738  0.69474480  0.65256001     0.26600
H1032       H  0.06009190  0.58568737  0.64657608     0.15400
C1033       C  0.62302939  0.12384927  0.68585123    -0.11800
C1034       C  0.61853366  0.08525803  0.67824612     0.14700
C1035       C  0.65998952  0.08805966  0.67291280     0.01600
C1036       C  0.70370841  0.12804185  0.67540109    -0.16200
C1037       C  0.70812311  0.16556257  0.68345449    -0.11000
C1038       C  0.66695178  0.16317981  0.68865100     0.08300
C1039       C  0.57041080  0.04443867  0.67526739     0.09400
S1040       S  0.66031332  0.04054361  0.66371248    -0.25300
H1041       H  0.73500503  0.12825559  0.67189673     0.19600
S1042       S  0.66855130  0.20869332  0.69941370    -0.31000
H1043       H  0.59199419  0.12328683  0.68975436     0.09900
C1044       C  0.53683069  0.01961154  0.68581342     0.03100
C1045       C  0.49070382  0.98526237  0.68218467    -0.13300
C1046       C  0.47748126  0.97369279  0.66824199    -0.09000
C1047       C  0.51237524  0.99533803  0.65789661     0.06600
C1048       C  0.55737160  0.03101899  0.66141520    -0.14100
S1049       S  0.55220163  0.03164177  0.70392668    -0.31000
H1050       H  0.46423684  0.96934863  0.69017594     0.10800
S1051       S  0.50096567  0.97988295  0.63980716    -0.28100
H1052       H  0.58234100  0.04905343  0.65316341     0.08100
H1053       H  0.71168796  0.24478182  0.69450339     0.26500
H1054       H  0.51002721  0.99534910  0.70933717     0.21300
H1055       H  0.46340354  0.93447615  0.64214092     0.26600
H1056       H  0.62153158  0.00450590  0.67064162     0.15400
C1057       C  0.34673584  0.09928734  0.70522319    -0.11800
C1058       C  0.32574594  0.07402275  0.71741987     0.14700
C1059       C  0.29519780  0.02528368  0.71660057     0.01600
C1060       C  0.28576812  0.00308428  0.70370063    -0.16200
C1061       C  0.30693952  0.02798485  0.69144357    -0.11000
C1062       C  0.33756306  0.07694302  0.69226700     0.08300
C1063       C  0.33316588  0.09951543  0.73069724     0.09400
S1064       S  0.26784083  0.98919617  0.73168270    -0.25300
H1065       H  0.26282643  0.96549012  0.70332595     0.19600
S1066       S  0.36415893  0.11323839  0.67720693    -0.31000
H1067       H  0.36953636  0.13687585  0.70577024     0.09900
C1068       C  0.37633319  0.12031627  0.73767218     0.03100
C1069       C  0.38082472  0.14268203  0.75045415    -0.13300
C1070       C  0.34291875  0.14450686  0.75646221    -0.09000
C1071       C  0.29937636  0.12241370  0.74954535     0.06600
C1072       C  0.29532325  0.10112164  0.73668612    -0.14100
S1073       S  0.42528454  0.11723387  0.73052815    -0.31000
H1074       H  0.41421898  0.15943842  0.75568642     0.10800
S1075       S  0.24697228  0.11787623  0.75682242    -0.28100
H1076       H  0.26192507  0.08450190  0.73143105     0.08100
H1077       H  0.32649149  0.08679622  0.66824747     0.26500
H1078       H  0.45893055  0.14882638  0.73985705     0.21300
H1079       H  0.25731962  0.11177213  0.77057986     0.26600
H1080       H  0.30393814  0.01630852  0.74103724     0.15400
C1081       C  0.14926517  0.37804275  0.75382318    -0.11800
C1082       C  0.17269275  0.35257236  0.75295736     0.14700
C1083       C  0.16555608  0.32361840  0.74133915     0.01600
C1084       C  0.13203919  0.31754496  0.73148350    -0.16200
C1085       C  0.10612282  0.34039310  0.73288696    -0.11000
C1086       C  0.11616383  0.37239506  0.74386703     0.08300
C1087       C  0.19796265  0.35039536  0.76525921     0.09400
S1088       S  0.19489297  0.29016948  0.73922406    -0.25300
H1089       H  0.12381074  0.29233988  0.72321190     0.19600
S1090       S  0.08338678  0.40193831  0.74677952    -0.31000
H1091       H  0.15453743  0.40001567  0.76278081     0.09900
C1092       C  0.24338786  0.38625877  0.76843372     0.03100
C1093       C  0.26841020  0.37870992  0.77890435    -0.13300
C1094       C  0.24883225  0.33570769  0.78596025    -0.09000
C1095       C  0.20167269  0.30188846  0.78368191     0.06600
C1096       C  0.17675129  0.30955875  0.77334101    -0.14100
S1097       S  0.27100687  0.43924887  0.75819060    -0.31000
H1098       H  0.30472987  0.40433384  0.78061660     0.10800
S1099       S  0.17264876  0.24695507  0.79295617    -0.28100
H1100       H  0.14131058  0.28249688  0.77108406     0.08100
H1101       H  0.07809849  0.40882141  0.73264801     0.26500
H1102       H  0.31447036  0.45977199  0.76492879     0.21300
H1103       H  0.20200673  0.26269470  0.80463585     0.26600
H1104       H  0.23510343  0.32057692  0.74675960     0.15400
C1105       C  0.60075363  0.28161440  0.75249228    -0.11800
C1106       C  0.62148746  0.26016140  0.75995435     0.14700
C1107       C  0.60385419  0.24060093  0.77313651     0.01600
C1108       C  0.56642513  0.24358188  0.77865678    -0.16200
C1109       C  0.54588296  0.26562474  0.77134443    -0.11000
C1110       C  0.56295682  0.28431967  0.75799304     0.08300
C1111       C  0.66294046  0.26081252  0.75407559     0.09400
S1112       S  0.62829963  0.21269231  0.78365322    -0.25300
H1113       H  0.55386078  0.22937684  0.78894351     0.19600
S1114       S  0.53780508  0.31113485  0.74737156    -0.31000
H1115       H  0.61430396  0.29651304  0.74233921     0.09900
C1116       C  0.65913155  0.23061153  0.74323040     0.03100
C1117       C  0.69947947  0.23185570  0.73820114    -0.13300
C1118       C  0.74369629  0.26244073  0.74386690    -0.09000
C1119       C  0.74686861  0.29179434  0.75503788     0.06600
C1120       C  0.70663363  0.29113303  0.75984129    -0.14100
S1121       S  0.60284729  0.18996417  0.73597961    -0.31000
H1122       H  0.69653596  0.20925531  0.72965667     0.10800
S1123       S  0.80031176  0.32892987  0.76414213    -0.28100
H1124       H  0.70915562  0.31366842  0.76838523     0.08100
H1125       H  0.49159231  0.28101290  0.75169979     0.26500
H1126       H  0.61825965  0.16596189  0.72733676     0.21300
H1127       H  0.81505499  0.29554342  0.76413913     0.26600
H1128       H  0.64515962  0.19726245  0.77264695     0.15400
C1129       C  0.68173359  0.83196571  0.10984101    -0.11800
C1130       C  0.63867850  0.81570171  0.10319914     0.14700
C1131       C  0.61108383  0.83615696  0.10624915     0.01600
C1132       C  0.62883497  0.87479369  0.11512521    -0.16200
C1133       C  0.67347834  0.89315183  0.12098952    -0.11000
C1134       C  0.69931197  0.87023861  0.11875879     0.08300
C1135       C  0.62710066  0.78068533  0.09221201     0.09400
S1136       S  0.55474877  0.81661895  0.09849992    -0.25300
H1137       H  0.60883855  0.89231349  0.11680115     0.19600
S1138       S  0.75527558  0.88880120  0.12667144    -0.31000
H1139       H  0.70262407  0.81571919  0.10763185     0.09900
C1140       C  0.64060092  0.79501432  0.07835134     0.03100
C1141       C  0.64542217  0.76469743  0.06916483    -0.13300
C1142       C  0.63736107  0.72089554  0.07374933    -0.09000
C1143       C  0.61799758  0.70455557  0.08705511     0.06600
C1144       C  0.61341170  0.73477728  0.09621479    -0.14100
S1145       S  0.65783595  0.85398307  0.07293395    -0.31000
H1146       H  0.66034597  0.77705098  0.05895181     0.10800
S1147       S  0.60280372  0.64704761  0.09329492    -0.28100
H1148       H  0.60267067  0.72373362  0.10684636     0.08100
H1149       H  0.74715771  0.90863838  0.13853367     0.26500
H1150       H  0.66323612  0.84759442  0.05874735     0.21300
H1151       H  0.59306843  0.62616910  0.08008405     0.26600
H1152       H  0.54445854  0.77046396  0.09592618     0.15400
C1153       C  0.77678349  0.32033843  0.08844067    -0.11800
C1154       C  0.73822991  0.32612850  0.09118488     0.14700
C1155       C  0.69988181  0.29122253  0.09867526     0.01600
C1156       C  0.70118325  0.25180058  0.10337745    -0.16200
C1157       C  0.74058492  0.24697869  0.10120717    -0.11000
C1158       C  0.77848041  0.28126715  0.09338877     0.08300
C1159       C  0.73846121  0.36819341  0.08573153     0.09400
S1160       S  0.64924267  0.29574918  0.10317119    -0.25300
H1161       H  0.67219889  0.22595757  0.10951164     0.19600
S1162       S  0.82950362  0.27700837  0.08921599    -0.31000
H1163       H  0.80580867  0.34658095  0.08241541     0.09900
C1164       C  0.77049736  0.41335262  0.09057849     0.03100
C1165       C  0.76993600  0.45228649  0.08490106    -0.13300
C1166       C  0.73722567  0.44695616  0.07477522    -0.09000
C1167       C  0.70591287  0.40163064  0.06972435     0.06600
C1168       C  0.70661308  0.36282967  0.07532649    -0.14100
S1169       S  0.81058297  0.42128294  0.10443991    -0.31000
H1170       H  0.79441098  0.48692810  0.08854965     0.10800
S1171       S  0.66627278  0.39120661  0.05559891    -0.28100
H1172       H  0.68264973  0.32818058  0.07139768     0.08100
H1173       H  0.80647445  0.22779860  0.08903879     0.26500
H1174       H  0.83389418  0.47050785  0.10461900     0.21300
H1175       H  0.69863477  0.42992910  0.04778174     0.26600
H1176       H  0.67246406  0.34484538  0.10401218     0.15400
C1177       C  0.99090526  0.71534511  0.13473641    -0.11800
C1178       C  0.94241845  0.69538480  0.13593980     0.14700
C1179       C  0.92142734  0.68052242  0.14918160     0.01600
C1180       C  0.94914505  0.68556375  0.16080787    -0.16200
C1181       C  0.99776636  0.70587530  0.15962220    -0.11000
C1182       C  0.01856634  0.72021991  0.14631533     0.08300
C1183       C  0.91433684  0.68633084  0.12306106     0.09400
S1184       S  0.85947151  0.65497769  0.15190644    -0.25300
H1185       H  0.93269072  0.67419693  0.17090012     0.19600
S1186       S  0.07966631  0.74159031  0.14319126    -0.31000
H1187       H  0.00713337  0.72553701  0.12457709     0.09900
C1188       C  0.91650532  0.72290795  0.11483502     0.03100
C1189       C  0.88853131  0.71206812  0.10289368    -0.13300
C1190       C  0.85885700  0.66541222  0.09886268    -0.09000
C1191       C  0.85683974  0.62900071  0.10716805     0.06600
C1192       C  0.88487954  0.63982510  0.11899809    -0.14100
S1193       S  0.95434647  0.78332507  0.11960159    -0.31000
H1194       H  0.89017011  0.74002841  0.09654725     0.10800
S1195       S  0.81765148  0.56799629  0.10370449    -0.28100
H1196       H  0.88312675  0.61162735  0.12527026     0.08100
H1197       H  0.08180993  0.70844345  0.15190534     0.26500
H1198       H  0.94009370  0.80317773  0.10908845     0.21300
H1199       H  0.78118299  0.57385696  0.09846509     0.26600
H1200       H  0.85244488  0.68010510  0.14126348     0.15400
C1201       C  0.89861744  0.38347166  0.15245929    -0.11800
C1202       C  0.91784236  0.39376947  0.16587139     0.14700
C1203       C  0.89394197  0.36007317  0.17652580     0.01600
C1204       C  0.85561467  0.31578639  0.17317849    -0.16200
C1205       C  0.83846430  0.30487177  0.15954321    -0.11000
C1206       C  0.85886498  0.34068242  0.14932487     0.08300
C1207       C  0.96022267  0.44129702  0.16827126     0.09400
S1208       S  0.90964085  0.37121676  0.19460781    -0.25300
H1209       H  0.84021617  0.28917258  0.18118639     0.19600
S1210       S  0.83623566  0.33367863  0.13186999    -0.31000
H1211       H  0.91479530  0.40920748  0.14424782     0.09900
C1212       C  0.00258228  0.44832323  0.17420678     0.03100
C1213       C  0.03911206  0.49440722  0.17712088    -0.13300
C1214       C  0.03538140  0.53382926  0.17347603    -0.09000
C1215       C  0.99517989  0.52639961  0.16612030     0.06600
C1216       C  0.95824080  0.48095058  0.16388680    -0.14100
S1217       S  0.01065438  0.39903752  0.17788797    -0.31000
H1218       H  0.06949910  0.49961833  0.18283994     0.10800
S1219       S  0.98729618  0.57415011  0.16025393    -0.28100
H1220       H  0.92691635  0.47658236  0.15892192     0.08100
H1221       H  0.78990336  0.30075349  0.13541762     0.26500
H1222       H  0.05655154  0.42505558  0.18290935     0.21300
H1223       H  0.03503990  0.60760939  0.15940365     0.26600
H1224       H  0.92822900  0.41992846  0.19388321     0.15400
C1225       C  0.47559880  0.96708552  0.16427183    -0.11800
C1226       C  0.46383278  0.94069085  0.17662023     0.14700
C1227       C  0.49883909  0.95397336  0.18691341     0.01600
C1228       C  0.54483861  0.98994740  0.18416280    -0.16200
C1229       C  0.55680942  0.01524034  0.17161647    -0.11000
C1230       C  0.52090774  0.00462023  0.16187851     0.08300
C1231       C  0.41542995  0.89924155  0.17832232     0.09400
S1232       S  0.48730200  0.92582752  0.20367325    -0.25300
H1233       H  0.57198684  0.99683660  0.19163855     0.19600
S1234       S  0.53163190  0.03646470  0.14580817    -0.31000
H1235       H  0.44938803  0.95793740  0.15629459     0.09900
C1236       C  0.37536830  0.90425771  0.17799788     0.03100
C1237       C  0.33100192  0.86517172  0.18048423    -0.13300
C1238       C  0.32492911  0.82047153  0.18315961    -0.09000
C1239       C  0.36460240  0.81488693  0.18282854     0.06600
C1240       C  0.40917243  0.85403908  0.18042354    -0.14100
S1241       S  0.38061567  0.96113349  0.17568911    -0.31000
H1242       H  0.30096797  0.87002742  0.18123597     0.10800
S1243       S  0.36075524  0.75932934  0.18632892    -0.28100
H1244       H  0.43939636  0.84938565  0.18048229     0.08100
H1245       H  0.56937715  0.07823974  0.15083301     0.26500
H1246       H  0.33284815  0.94497905  0.17363876     0.21300
H1247       H  0.31518732  0.73191136  0.18122584     0.26600
H1248       H  0.44081057  0.91603037  0.20458510     0.15400
C1249       C  0.21039646  0.83643784  0.28880709    -0.11800
C1250       C  0.24593307  0.88339468  0.28887195     0.14700
C1251       C  0.26433923  0.90639775  0.27603353     0.01600
C1252       C  0.24663343  0.88184622  0.26353349    -0.16200
C1253       C  0.21036652  0.83502528  0.26346565    -0.11000
C1254       C  0.19264136  0.81206213  0.27634824     0.08300
C1255       C  0.26194338  0.90712705  0.30252640     0.09400
S1256       S  0.30902603  0.96724722  0.27468510    -0.25300
H1257       H  0.26055830  0.89979558  0.25374869     0.19600
S1258       S  0.14828096  0.75127198  0.27768118    -0.31000
H1259       H  0.19635831  0.81855022  0.29859579     0.09900
C1260       C  0.24255996  0.93277521  0.30837854     0.03100
C1261       C  0.25859795  0.95469366  0.32130488    -0.13300
C1262       C  0.29439187  0.95233761  0.32856574    -0.09000
C1263       C  0.31385868  0.92648304  0.32252489     0.06600
C1264       C  0.29677904  0.90356587  0.30979096    -0.14100
S1265       S  0.19757161  0.93791701  0.29928171    -0.31000
H1266       H  0.24338687  0.97426911  0.32571139     0.10800
S1267       S  0.36254854  0.92370613  0.32987358    -0.28100
H1268       H  0.31189822  0.88403328  0.30525141     0.08100
H1269       H  0.16317361  0.73656422  0.26600967     0.26500
H1270       H  0.19293501  0.96733723  0.30894689     0.21300
H1271       H  0.38907258  0.97226608  0.33215399     0.26600
H1272       H  0.32343768  0.97512469  0.28858804     0.15400
C1273       C  0.84073486  0.72952717  0.36943547    -0.11800
C1274       C  0.82389281  0.68376364  0.37434954     0.14700
C1275       C  0.79489410  0.64582880  0.36568897     0.01600
C1276       C  0.77893862  0.65431074  0.35315335    -0.16200
C1277       C  0.79234892  0.70013488  0.34873990    -0.11000
C1278       C  0.82687480  0.73806441  0.35653716     0.08300
C1279       C  0.83415794  0.67676622  0.38888507     0.09400
S1280       S  0.77646426  0.58586241  0.37017586    -0.25300
H1281       H  0.75459339  0.62457120  0.34704757     0.19600
S1282       S  0.85556655  0.79792379  0.35058768    -0.31000
H1283       H  0.86449251  0.75892844  0.37578622     0.09900
C1284       C  0.88005074  0.69293427  0.39349169     0.03100
C1285       C  0.88789281  0.68696131  0.40745609    -0.13300
C1286       C  0.85096715  0.66570284  0.41714571    -0.09000
C1287       C  0.80497685  0.65039267  0.41245432     0.06600
C1288       C  0.79714414  0.65547496  0.39841839    -0.14100
S1289       S  0.92862885  0.71936102  0.38150192    -0.31000
H1290       H  0.92319062  0.69811267  0.41072985     0.10800
S1291       S  0.75504887  0.62648367  0.42383648    -0.28100
H1292       H  0.76187372  0.64389377  0.39494577     0.08100
H1293       H  0.85677990  0.78618937  0.33659341     0.26500
H1294       H  0.96419657  0.73457591  0.39150681     0.21300
H1295       H  0.77821295  0.66013114  0.43424179     0.26600
H1296       H  0.81513581  0.59585183  0.37855181     0.15400
C1297       C  0.74268203  0.90502725  0.23996946    -0.11800
C1298       C  0.70453172  0.90084319  0.23240474     0.14700
C1299       C  0.65896288  0.87216729  0.23772363     0.01600
C1300       C  0.65269405  0.84775588  0.25023567    -0.16200
C1301       C  0.69089288  0.85130483  0.25765531    -0.11000
C1302       C  0.73647104  0.88122795  0.25254779     0.08300
C1303       C  0.71380714  0.92591960  0.21888343     0.09400
S1304       S  0.60739230  0.86450577  0.22897710    -0.25300
H1305       H  0.61758490  0.82473048  0.25400893     0.19600
S1306       S  0.78822433  0.89115128  0.26166501    -0.31000
H1307       H  0.77773358  0.92709006  0.23600797     0.09900
C1308       C  0.73898858  0.97525479  0.21818929     0.03100
C1309       C  0.74908416  0.99761334  0.20520363    -0.13300
C1310       C  0.73402754  0.97187009  0.19281688    -0.09000
C1311       C  0.70907321  0.92242364  0.19352217     0.06600
C1312       C  0.69912885  0.90005873  0.20651008    -0.14100
S1313       S  0.75658180  0.00993328  0.23386141    -0.31000
H1314       H  0.76748159  0.03548990  0.20470362     0.10800
S1315       S  0.69045184  0.88602536  0.17825119    -0.28100
H1316       H  0.68040976  0.86215163  0.20698112     0.08100
H1317       H  0.76903920  0.88557600  0.27505577     0.26500
H1318       H  0.77470170  0.05395364  0.22740059     0.21300
H1319       H  0.72859239  0.91686492  0.16993903     0.26600
H1320       H  0.62857766  0.90882701  0.22260712     0.15400
C1321       C  0.87410646  0.66863799  0.24245390    -0.11800
C1322       C  0.85527877  0.62683068  0.25009786     0.14700
C1323       C  0.87229678  0.59559844  0.24803737     0.01600
C1324       C  0.90940647  0.60810833  0.23880835    -0.16200
C1325       C  0.93021266  0.65142224  0.23190895    -0.11000
C1326       C  0.91173807  0.68150707  0.23347155     0.08300
C1327       C  0.81949488  0.61926216  0.26046381     0.09400
S1328       S  0.85068899  0.54113926  0.25741279    -0.25300
H1329       H  0.92418490  0.58535826  0.23772641     0.19600
S1330       S  0.93676090  0.73677421  0.22429066    -0.31000
H1331       H  0.86028322  0.69202361  0.24397304     0.09900
C1332       C  0.83118571  0.63081156  0.27454649     0.03100
C1333       C  0.80035448  0.63678020  0.28318951    -0.13300
C1334       C  0.75874795  0.63187338  0.27783915    -0.09000
C1335       C  0.74525556  0.61586045  0.26413439     0.06600
C1336       C  0.77581707  0.60964437  0.25557117    -0.14100
S1337       S  0.88707474  0.64235344  0.28111864    -0.31000
H1338       H  0.81036516  0.64907510  0.29373266     0.10800
S1339       S  0.68985038  0.60504670  0.25734302    -0.28100
H1340       H  0.76706300  0.60015027  0.24477832     0.08100
H1341       H  0.91050145  0.75400828  0.23097069     0.26500
H1342       H  0.87923240  0.64960136  0.29502834     0.21300
H1343       H  0.70016362  0.60316410  0.24325660     0.26600
H1344       H  0.80877993  0.53728151  0.26220060     0.15400
C1345       C  0.39216925  0.68621840  0.27974862    -0.11800
C1346       C  0.39688615  0.70891117  0.26704695     0.14700
C1347       C  0.44124225  0.73494240  0.26078034     0.01600
C1348       C  0.48009171  0.73770140  0.26737697    -0.16200
C1349       C  0.47524736  0.71440905  0.27996878    -0.11000
C1350       C  0.43103029  0.68907576  0.28634057     0.08300
C1351       C  0.35550561  0.70740357  0.26098080     0.09400
S1352       S  0.45046575  0.76510980  0.24440197    -0.25300
H1353       H  0.51408319  0.75696343  0.26246857     0.19600
S1354       S  0.42243828  0.66111012  0.30303963    -0.31000
H1355       H  0.35818686  0.66700966  0.28466140     0.09900
C1356       C  0.32217130  0.66785908  0.25370926     0.03100
C1357       C  0.28512851  0.66944989  0.24726772    -0.13300
C1358       C  0.28118504  0.70992678  0.24792280    -0.09000
C1359       C  0.31375945  0.74889518  0.25566383     0.06600
C1360       C  0.35063886  0.74710824  0.26215418    -0.14100
S1361       S  0.32824365  0.61652574  0.25200145    -0.31000
H1362       H  0.26014925  0.63978035  0.24124567     0.10800
S1363       S  0.30783930  0.80025519  0.25772790    -0.28100
H1364       H  0.37620267  0.77682715  0.26803779     0.08100
H1365       H  0.46472781  0.69608983  0.30866806     0.26500
H1366       H  0.28603994  0.58874822  0.24493584     0.21300
H1367       H  0.35102038  0.82836155  0.26426254     0.26600
H1368       H  0.40638294  0.73469727  0.23873500     0.15400
C1369       C  0.58893311  0.47703699  0.35535839    -0.11800
C1370       C  0.54370580  0.44126656  0.35197043     0.14700
C1371       C  0.51129932  0.45510830  0.34745439     0.01600
C1372       C  0.52651552  0.50289346  0.34471978    -0.16200
C1373       C  0.57281771  0.53810362  0.34719983    -0.11000
C1374       C  0.60314764  0.52457048  0.35341057     0.08300
C1375       C  0.53218661  0.39088428  0.35394233     0.09400
S1376       S  0.45004248  0.41413609  0.34514896    -0.25300
H1377       H  0.50246132  0.51236558  0.34010927     0.19600
S1378       S  0.66124438  0.56675717  0.35887062    -0.31000
H1379       H  0.61388070  0.46787205  0.35945254     0.09900
C1380       C  0.51597884  0.35701079  0.34314326     0.03100
C1381       C  0.50563657  0.31033045  0.34592114    -0.13300
C1382       C  0.51301600  0.29687747  0.35914500    -0.09000
C1383       C  0.53296710  0.33213278  0.36948727     0.06600
C1384       C  0.54128899  0.37760945  0.36690393    -0.14100
S1385       S  0.50941447  0.37320047  0.32572754    -0.31000
H1386       H  0.49009895  0.28389934  0.33793473     0.10800
S1387       S  0.54811981  0.32117751  0.38649739    -0.28100
H1388       H  0.55514649  0.40312690  0.37520504     0.08100
H1389       H  0.65231111  0.60396157  0.36067056     0.26500
H1390       H  0.49677530  0.32990304  0.31950121     0.21300
H1391       H  0.55639827  0.28504398  0.38231058     0.26600
H1392       H  0.44799523  0.37938853  0.35408352     0.15400
C1393       C  0.59094597  0.90474744  0.34474400    -0.11800
C1394       C  0.54445794  0.89482205  0.34504000     0.14700
C1395       C  0.50863144  0.84775518  0.34314730     0.01600
C1396       C  0.52016492  0.81279814  0.34007388    -0.16200
C1397       C  0.56687114  0.82322657  0.33932490    -0.11000
C1398       C  0.60237928  0.86971654  0.34210087     0.08300
C1399       C  0.53489519  0.93439774  0.34732357     0.09400
S1400       S  0.44765492  0.83035455  0.34420032    -0.25300
H1401       H  0.49255048  0.77766200  0.33770238     0.19600
S1402       S  0.66342843  0.88699868  0.34175256    -0.31000
H1403       H  0.61872548  0.94038410  0.34640886     0.09900
C1404       C  0.54075840  0.95526194  0.36049310     0.03100
C1405       C  0.52961430  0.99098390  0.36245960    -0.13300
C1406       C  0.51329123  0.00741993  0.35150523    -0.09000
C1407       C  0.51009179  0.98831210  0.33812775     0.06600
C1408       C  0.52048871  0.95197737  0.33620019    -0.14100
S1409       S  0.55900816  0.93380527  0.37509275    -0.31000
H1410       H  0.53053564  0.00404426  0.37284019     0.10800
S1411       S  0.48986228  0.00662294  0.32332612    -0.28100
H1412       H  0.51662958  0.93678767  0.32597695     0.08100
H1413       H  0.65711162  0.84285674  0.34543000     0.26500
H1414       H  0.56276710  0.96767854  0.38467831     0.21300
H1415       H  0.50549183  0.05234840  0.32807132     0.26600
H1416       H  0.45295321  0.86436300  0.35395866     0.15400
C1417       C  0.83545241  0.08891289  0.77938833    -0.11800
C1418       C  0.79804015  0.08921322  0.78619811     0.14700
C1419       C  0.77529196  0.11070206  0.77963339     0.01600
C1420       C  0.79143461  0.13274277  0.76673208    -0.16200
C1421       C  0.82935030  0.13309802  0.75995507    -0.11000
C1422       C  0.85066341  0.10960537  0.76628962     0.08300
C1423       C  0.78370979  0.06690950  0.80011796     0.09400
S1424       S  0.72559679  0.11133363  0.78716893    -0.25300
H1425       H  0.77460781  0.15045222  0.76205871     0.19600
S1426       S  0.89617050  0.10313030  0.75805860    -0.31000
H1427       H  0.85259267  0.07183609  0.78426856     0.09900
C1428       C  0.76388925  0.01816763  0.80179800     0.03100
C1429       C  0.75080129  0.99837919  0.81509652    -0.13300
C1430       C  0.75606517  0.02598933  0.82683978    -0.09000
C1431       C  0.77637548  0.07501103  0.82511612     0.06600
C1432       C  0.78993179  0.09482265  0.81181733    -0.14100
S1433       S  0.75241790  0.98070124  0.78688959    -0.31000
H1434       H  0.73445967  0.96076627  0.81626323     0.10800
S1435       S  0.78675628  0.11428602  0.83940131    -0.28100
H1436       H  0.80552731  0.13237263  0.81055914     0.08100
H1437       H  0.87760347  0.09750875  0.74459533     0.26500
H1438       H  0.73290598  0.93802652  0.79419109     0.21300
H1439       H  0.79722815  0.08877419  0.84906330     0.26600
H1440       H  0.70748745  0.06810794  0.79409354     0.15400
C1441       C  0.54306383  0.14445516  0.83422327    -0.11800
C1442       C  0.50629213  0.09999338  0.83821324     0.14700
C1443       C  0.46159150  0.09519755  0.84018016     0.01600
C1444       C  0.45495264  0.13388615  0.83829078    -0.16200
C1445       C  0.49107711  0.17766943  0.83371201    -0.11000
C1446       C  0.53569625  0.18252280  0.83155555     0.08300
C1447       C  0.51548032  0.05987752  0.84074587     0.09400
S1448       S  0.41034034  0.03957606  0.84381704    -0.25300
H1449       H  0.41995900  0.12859806  0.83925642     0.19600
S1450       S  0.58376061  0.23501053  0.82434649    -0.31000
H1451       H  0.57772380  0.14931794  0.83279649     0.09900
C1452       C  0.53667978  0.04475986  0.83072194     0.03100
C1453       C  0.54708341  0.00908505  0.83410419    -0.13300
C1454       C  0.53560201  0.98676412  0.84714121    -0.09000
C1455       C  0.51198302  0.99999216  0.85678101     0.06600
C1456       C  0.50305284  0.03649570  0.85363219    -0.14100
S1457       S  0.55065366  0.07060976  0.81357873    -0.31000
H1458       H  0.56630871  0.00006443  0.82681102     0.10800
S1459       S  0.49500777  0.97343239  0.87373451    -0.28100
H1460       H  0.48691129  0.04737594  0.86147671     0.08100
H1461       H  0.56675814  0.26527650  0.82770121     0.26500
H1462       H  0.57288476  0.04641581  0.80868830     0.21300
H1463       H  0.49153114  0.93057577  0.86997392     0.26600
H1464       H  0.42449582  0.01284000  0.83594656     0.15400
C1465       C  0.45575532  0.51515265  0.85476597    -0.11800
C1466       C  0.49869695  0.55368857  0.85079445     0.14700
C1467       C  0.53240776  0.54425942  0.84469982     0.01600
C1468       C  0.52047324  0.49778528  0.84127502    -0.16200
C1469       C  0.47632626  0.45959391  0.84453133    -0.11000
C1470       C  0.44468958  0.46888216  0.85197769     0.08300
C1471       C  0.50702974  0.60249963  0.85365333     0.09400
S1472       S  0.59136938  0.58979155  0.84117420    -0.25300
H1473       H  0.54519956  0.49167531  0.83556103     0.19600
S1474       S  0.38812513  0.42288013  0.85766655    -0.31000
H1475       H  0.42999169  0.52114870  0.85989822     0.03900
C1476       C  0.51765742  0.63669856  0.84313687     0.03100
C1477       C  0.52743807  0.68255889  0.84672378    -0.13300
C1478       C  0.52464027  0.69469314  0.86057710    -0.09000
C1479       C  0.50869561  0.65852896  0.87074907     0.06600
C1480       C  0.50145090  0.61398617  0.86728479    -0.14100
S1481       S  0.51716518  0.62161623  0.82509551    -0.31000
H1482       H  0.53871733  0.70935734  0.83878565     0.10800
S1483       S  0.49622643  0.66661498  0.88847804    -0.28100
H1484       H  0.49115445  0.58777855  0.87539244     0.08100
H1485       H  0.39955934  0.38706111  0.85793396     0.26500
H1486       H  0.52917741  0.66578630  0.81957585     0.21300
H1487       H  0.48296304  0.70008879  0.88530443     0.26600
H1488       H  0.59353620  0.61959222  0.85194383     0.15400
C1489       C  0.69811862  0.84445354  0.95971609    -0.11800
C1490       C  0.69278161  0.79958487  0.96074020     0.14700
C1491       C  0.68030111  0.77117557  0.94875066     0.01600
C1492       C  0.67503245  0.78876591  0.93603426    -0.16200
C1493       C  0.68175809  0.83432619  0.93484360    -0.11000
C1494       C  0.69198890  0.86176197  0.94705806     0.08300
C1495       C  0.69926137  0.78291708  0.97448062     0.09400
S1496       S  0.67081756  0.71226308  0.94890526    -0.25300
H1497       H  0.66635469  0.76675386  0.92691628     0.19600
S1498       S  0.69442141  0.91759162  0.94755404    -0.31000
H1499       H  0.70610930  0.86579947  0.96896515     0.09900
C1500       C  0.74354075  0.80232344  0.98076029     0.03100
C1501       C  0.74874258  0.78293531  0.99319318    -0.13300
C1502       C  0.71064922  0.74410191  0.99952508    -0.09000
C1503       C  0.66598115  0.72551774  0.99324348     0.06600
C1504       C  0.66083301  0.74562733  0.98102886    -0.14100
S1505       S  0.79394030  0.85034907  0.97257930    -0.31000
H1506       H  0.78295459  0.79752567  0.99784720     0.10800
S1507       S  0.61456690  0.67391420  0.99944401    -0.28100
H1508       H  0.62677797  0.73066508  0.97620872     0.08100
H1509       H  0.65512723  0.90330373  0.93900486     0.26500
H1510       H  0.82702675  0.85384944  0.98238090     0.21300
H1511       H  0.63665306  0.64680163  0.99995506     0.26600
H1512       H  0.70351609  0.71966237  0.95932138     0.15400
C1513       C  0.92593727  0.25893534  0.04064371    -0.11800
C1514       C  0.92715714  0.22022316  0.04623232     0.14700
C1515       C  0.94965565  0.20031615  0.03875338     0.01600
C1516       C  0.97090797  0.21977910  0.02600230    -0.16200
C1517       C  0.97216473  0.26026303  0.02069336    -0.11000
C1518       C  0.94890699  0.27977670  0.02818287     0.08300
C1519       C  0.90532505  0.20188020  0.05998260     0.09400
S1520       S  0.95468575  0.15176225  0.04533556    -0.25300
H1521       H  0.98858529  0.20436891  0.02049960     0.19600
S1522       S  0.95039518  0.33331288  0.02320116    -0.31000
H1523       H  0.90868536  0.27432525  0.04638416     0.09900
C1524       C  0.92504486  0.22729138  0.07227196     0.03100
C1525       C  0.90281752  0.20911478  0.08505734    -0.13300
C1526       C  0.86106941  0.16600036  0.08585531    -0.09000
C1527       C  0.84099109  0.14111649  0.07341609     0.06600
C1528       C  0.86373073  0.15890013  0.06071072    -0.14100
S1529       S  0.97936320  0.28218596  0.07173524    -0.31000
H1530       H  0.91825660  0.22836076  0.09451333     0.10800
S1531       S  0.78500041  0.08833760  0.07280382    -0.28100
H1532       H  0.84816606  0.13976240  0.05123428     0.08100
H1533       H  0.99925570  0.35875514  0.02171782     0.26500
H1534       H  0.97902640  0.29437869  0.08571382     0.21300
H1535       H  0.76416099  0.10254870  0.08301045     0.26600
H1536       H  0.96164687  0.16676824  0.05923878     0.15400
C1537       C  0.19262362  0.29377516  0.90137965    -0.11800
C1538       C  0.23254457  0.33137362  0.89547124     0.14700
C1539       C  0.25517282  0.37460016  0.90256521     0.01600
C1540       C  0.23736695  0.37908213  0.91533323    -0.16200
C1541       C  0.19785957  0.34112726  0.92137709    -0.11000
C1542       C  0.17568444  0.29774102  0.91430277     0.08300
C1543       C  0.24974252  0.32337978  0.88208402     0.09400
S1544       S  0.30678032  0.42522941  0.89598115    -0.25300
H1545       H  0.25434686  0.41267510  0.92054260     0.19600
S1546       S  0.12694382  0.24543275  0.92135874    -0.31000
H1547       H  0.17517599  0.26050334  0.89599913     0.09900
C1548       C  0.26509221  0.29050661  0.88114146     0.03100
C1549       C  0.27838223  0.28145735  0.86822884    -0.13300
C1550       C  0.27678462  0.30440221  0.85607080    -0.09000
C1551       C  0.26087316  0.33704864  0.85703527     0.06600
C1552       C  0.24795574  0.34645486  0.87001953    -0.14100
S1553       S  0.26969207  0.26129144  0.89648501    -0.31000
H1554       H  0.29154227  0.25727016  0.86770311     0.10800
S1555       S  0.25421508  0.36615119  0.84208936    -0.28100
H1556       H  0.23530535  0.37107958  0.87068434     0.08100
H1557       H  0.14313399  0.25440165  0.93513824     0.26500
H1558       H  0.27851243  0.22891199  0.88955483     0.21300
H1559       H  0.23950017  0.32751124  0.83317958     0.26600
H1560       H  0.32498010  0.40038551  0.88899243     0.15400
C1561       C  0.78489652  0.17116334  0.91443658    -0.11800
C1562       C  0.83189394  0.18391229  0.91605661     0.14700
C1563       C  0.85144210  0.16352028  0.90740486     0.01600
C1564       C  0.82242838  0.12666772  0.89871147    -0.16200
C1565       C  0.77443240  0.11044007  0.89816033    -0.11000
C1566       C  0.75589814  0.13460727  0.90552760     0.08300
C1567       C  0.85752783  0.21136503  0.92834845     0.09400
S1568       S  0.91246753  0.18057009  0.90779670    -0.25300
H1569       H  0.83692869  0.10860519  0.89294411     0.19600
S1570       S  0.69505204  0.11766248  0.90506296    -0.31000
H1571       H  0.76989621  0.18707809  0.92096578     0.09900
C1572       C  0.87230962  0.25932446  0.92973861     0.03100
C1573       C  0.90315234  0.28484170  0.94050600    -0.13300
C1574       C  0.91915778  0.26294823  0.94973956    -0.09000
C1575       C  0.90038944  0.21409176  0.94914712     0.06600
C1576       C  0.86980050  0.18881748  0.93848190    -0.14100
S1577       S  0.85617045  0.28892060  0.91699599    -0.31000
H1578       H  0.91840372  0.32252433  0.94087500     0.10800
S1579       S  0.91813362  0.18309918  0.96089343    -0.28100
H1580       H  0.85744864  0.15164112  0.93761497     0.08100
H1581       H  0.67896643  0.06982981  0.90708687     0.26500
H1582       H  0.87589895  0.33220544  0.92390469     0.21300
H1583       H  0.93126904  0.21564120  0.97179282     0.26600
H1584       H  0.92836103  0.22687165  0.91209580     0.15400
C1585       C  0.41459799  0.71674554  0.93168979    -0.11800
C1586       C  0.41748154  0.67589004  0.93274115     0.14700
C1587       C  0.45916024  0.67679777  0.92911016     0.01600
C1588       C  0.49626751  0.71801662  0.92386049    -0.16200
C1589       C  0.49224073  0.75814617  0.92147579    -0.11000
C1590       C  0.45143350  0.75804050  0.92614828     0.08300
C1591       C  0.37526824  0.63234882  0.93680906     0.09400
S1592       S  0.46636229  0.62601734  0.93014223    -0.25300
H1593       H  0.52764205  0.71759821  0.92081832     0.19600
S1594       S  0.44393660  0.80860866  0.92461406    -0.31000
H1595       H  0.38249357  0.71552911  0.93478181     0.09900
C1596       C  0.37116860  0.61155646  0.94988482     0.03100
C1597       C  0.32989177  0.57050748  0.95321493    -0.13300
C1598       C  0.29261450  0.55026502  0.94377776    -0.09000
C1599       C  0.29719264  0.57066923  0.93058246     0.06600
C1600       C  0.33840340  0.61175561  0.92727722    -0.14100
S1601       S  0.41742202  0.63831037  0.96253462    -0.31000
H1602       H  0.32593697  0.55491537  0.96340512     0.10800
S1603       S  0.25251360  0.54547094  0.91747168    -0.28100
H1604       H  0.34204000  0.62766086  0.91714798     0.08100
H1605       H  0.39992998  0.78927178  0.93104973     0.26500
H1606       H  0.39857188  0.60094475  0.97208240     0.21300
H1607       H  0.23439475  0.49871044  0.92173753     0.26600
H1608       H  0.42025351  0.59312992  0.92654079     0.15400
C1609       C  0.87957145  0.48326190  0.01830332    -0.11800
C1610       C  0.92486625  0.52115055  0.01600702     0.14700
C1611       C  0.93072191  0.56667101  0.01508795     0.01600
C1612       C  0.89201290  0.57319640  0.01657106    -0.16200
C1613       C  0.84700276  0.53557308  0.01931155    -0.11000
C1614       C  0.84097883  0.49002661  0.02009308     0.08300
C1615       C  0.96462252  0.51205462  0.01363306     0.09400
S1616       S  0.98719360  0.61835321  0.01300550    -0.25300
H1617       H  0.89766780  0.60857396  0.01657196     0.19600
S1618       S  0.78549691  0.43962253  0.02429535    -0.31000
H1619       H  0.87428113  0.44808247  0.01885363     0.09900
C1620       C  0.97964765  0.49121713  0.02376898     0.03100
C1621       C  0.01508566  0.48058730  0.02048605    -0.13300
C1622       C  0.03597089  0.49021725  0.00726424    -0.09000
C1623       C  0.02164601  0.51228728  0.99733788     0.06600
C1624       C  0.98674120  0.52308724  0.00062379    -0.14100
S1625       S  0.95292639  0.47690928  0.04076747    -0.31000
H1626       H  0.02432058  0.46181916  0.02790471     0.10800
S1627       S  0.04297489  0.52295252  0.97969835    -0.28100
H1628       H  0.97531818  0.53859987  0.99271671     0.08100
H1629       H  0.75807875  0.45724310  0.01868411     0.26500
H1630       H  0.97866100  0.45683819  0.04605855     0.21300
H1631       H  0.08585460  0.52572161  0.98267231     0.26600
H1632       H  0.01230237  0.60085067  0.02020720     0.15400
C1633       C  0.46926971  0.47760544  0.01775857    -0.11800
C1634       C  0.45702981  0.49692396  0.00658282     0.14700
C1635       C  0.49270091  0.52588305  0.99705215     0.01600
C1636       C  0.53932336  0.53736900  0.99947527    -0.16200
C1637       C  0.55166588  0.51929963  0.01093656    -0.11000
C1638       C  0.51552409  0.48776064  0.01985015     0.08300
C1639       C  0.40746114  0.48736591  0.00538800     0.09400
S1640       S  0.48142006  0.55063411  0.98182034    -0.25300
H1641       H  0.56657529  0.56256538  0.99272989     0.19600
S1642       S  0.52728733  0.46282196  0.03491159    -0.31000
H1643       H  0.44272158  0.45534142  0.02518145     0.09900
C1644       C  0.36942758  0.44139895  0.00397574     0.03100
C1645       C  0.32397214  0.43409343  0.00218255    -0.13300
C1646       C  0.31484309  0.47150593  0.00129769    -0.09000
C1647       C  0.35272951  0.51748214  0.00297819     0.06600
C1648       C  0.39811771  0.52479166  0.00526128    -0.14100
S1649       S  0.37899074  0.39203869  0.00284076    -0.31000
H1650       H  0.29553540  0.39890898  0.00038356     0.10800
S1651       S  0.34642970  0.56835063  0.00076020    -0.28100
H1652       H  0.42681310  0.56026879  0.00636950     0.08100
H1653       H  0.56586455  0.46197161  0.02905679     0.26500
H1654       H  0.33175996  0.35687958  0.00317483     0.21300
H1655       H  0.30093446  0.54779916  0.00612732     0.26600
H1656       H  0.43543903  0.51408468  0.97978181     0.15400
loop_ 
_geom_bond_atom_site_label_1 
_geom_bond_atom_site_label_2 
_geom_bond_distance 
_geom_bond_site_symmetry_2 
_ccdc_geom_bond_type 
Zr1           O2   2.444   1_455  S
Zr1           O3   2.445   1_456  S
Zr1           O4   2.446   1_455  S
Zr1           O7   2.390       .  S
Zr1           O9   2.368       .  S
Zr1          O10   2.393       .  S
Zr1          O11   2.408       .  S
Zr1          O12   2.407       .  S
O2           H58   0.990       .  S
O2           H66   0.991       .  S
O3           C23   1.284   1_655  A
O4           C25   1.282       .  A
O5          Zr15   2.507   1_554  S
O5           C24   1.299       .  A
O6          Zr14   2.390   1_655  S
O6           C25   1.275       .  A
O7           C24   1.275   1_556  A
O8          Zr16   2.416   1_554  S
O8           C23   1.282       .  A
O9          Zr14   2.393       .  S
O9          Zr16   2.379       .  S
O10         Zr15   2.398       .  S
O10         Zr16   2.389       .  S
O10          H45   0.965   1_556  S
O11         Zr14   2.400       .  S
O11         Zr31   2.416       .  S
O11          H48   0.967       .  S
O12         Zr15   2.399       .  S
O12         Zr31   2.390       .  S
Zr13         O38   2.442       .  S
Zr13         O32   2.399       .  S
Zr13         O40   2.396       .  S
Zr13         O28   2.442       .  S
Zr13         O19   2.396       .  S
Zr13         O20   2.386       .  S
Zr13         O21   2.361       .  S
Zr13         O22   2.394       .  S
Zr14         O33   2.441       .  S
Zr14         O26   2.434       .  S
Zr14         O27   2.411       .  S
Zr14         O20   2.383       .  S
Zr14         O21   2.380       .  S
Zr15         O17   2.435       .  S
Zr15         O39   2.437   1_556  S
Zr15         O41   2.516   1_556  S
Zr15         O19   2.398       .  S
Zr15         O22   2.386       .  S
Zr16         O42   2.435   1_556  S
Zr16         O43   2.435       .  S
Zr16         O18   2.437       .  S
Zr16         O19   2.385       .  S
Zr16         O20   2.402       .  S
O17          H54   0.990   1_556  S
O18          H49   0.990       .  S
O18          H63   0.990       .  S
O20          H46   0.964       .  S
O21         Zr31   2.361       .  S
O22         Zr31   2.381       .  S
O22          H47   0.965       .  S
C23        C1517   1.488   1_455  S
C24        C1622   1.485       .  S
C25        C1574   1.461       .  S
O26          H62   0.990       .  S
O27          C29   1.281       .  A
O28          C29   1.287       .  A
C29        C1541   1.480       .  S
O30         Zr31   2.436       .  S
O30          H59   0.990       .  S
Zr31         O34   2.436       .  S
Zr31         O35   2.437       .  S
Zr31         O36   2.445       .  S
O32          C37   1.278       .  A
O33          H50   0.991       .  S
O33          H65   0.990       .  S
O34          H51   0.990       .  S
O35          H55   0.990       .  S
O35          H64   0.990       .  S
O36          C37   1.286       .  A
C37        C1598   1.464       .  S
O38          H57   0.990       .  S
O38          H61   0.990       .  S
O39          H53   0.990       .  S
O39          H60   0.990       .  S
O40          C44   1.279       .  A
O41          C44   1.302   1_554  A
O42          H52   0.990       .  S
O43          H56   0.990       .  S
C44        C1646   1.497   1_556  S
Zr67         O68   2.446   1_565  S
Zr67         O69   2.451   1_565  S
Zr67         O70   2.442   1_565  S
Zr67         O73   2.404       .  S
Zr67         O75   2.383       .  S
Zr67         O76   2.394       .  S
Zr67         O77   2.418       .  S
Zr67         O78   2.408       .  S
O68         H124   0.990       .  S
O68         H132   0.991       .  S
O69          C89   1.285       .  A
O70          C91   1.280       .  A
O71         Zr81   2.509       .  S
O71          C90   1.299       .  A
O72         Zr80   2.414   1_545  S
O72          C91   1.278       .  A
O73          C90   1.277       .  A
O74         Zr82   2.418       .  S
O74          C89   1.281   1_565  A
O75         Zr80   2.401       .  S
O75         Zr82   2.385       .  S
O76         Zr81   2.400       .  S
O76         Zr82   2.391       .  S
O76         H111   0.965       .  S
O77         Zr80   2.406       .  S
O77         Zr97   2.404       .  S
O77         H114   0.964       .  S
O78         Zr81   2.398       .  S
O78         Zr97   2.386       .  S
Zr79        O104   2.441       .  S
Zr79         O98   2.402       .  S
Zr79        O106   2.399       .  S
Zr79         O94   2.429       .  S
Zr79         O85   2.395       .  S
Zr79         O86   2.393       .  S
Zr79         O87   2.365       .  S
Zr79         O88   2.393       .  S
Zr80         O99   2.445       .  S
Zr80         O92   2.434       .  S
Zr80         O93   2.449       .  S
Zr80         O86   2.384       .  S
Zr80         O87   2.377       .  S
Zr81         O83   2.434       .  S
Zr81        O105   2.436       .  S
Zr81        O107   2.521       .  S
Zr81         O85   2.397       .  S
Zr81         O88   2.395       .  S
Zr82        O108   2.435       .  S
Zr82        O109   2.436       .  S
Zr82         O84   2.437       .  S
Zr82         O85   2.390       .  S
Zr82         O86   2.408       .  S
O83         H120   0.990       .  S
O84         H115   0.990       .  S
O84         H129   0.990       .  S
O86         H112   0.967       .  S
O87         Zr97   2.357       .  S
O88         Zr97   2.387       .  S
O88         H113   0.966       .  S
C89        C1430   1.487       .  S
C90        C1454   1.490       .  S
C91        C1565   1.467       .  S
O92         H128   0.990       .  S
O93          C95   1.287       .  A
O94          C95   1.284       .  A
C95        C1493   1.493       .  S
O96         Zr97   2.436       .  S
O96         H125   0.990       .  S
Zr97        O100   2.435       .  S
Zr97        O101   2.436       .  S
Zr97        O102   2.442       .  S
O98         C103   1.281       .  A
O99         H116   0.991   1_565  S
O99         H131   0.991   1_565  S
O100        H117   0.990       .  S
O101        H121   0.990       .  S
O101        H130   0.990       .  S
O102        C103   1.284       .  A
C103       C1589   1.489       .  S
O104        H123   0.990       .  S
O104        H127   0.990       .  S
O105        H119   0.990       .  S
O105        H126   0.990       .  S
O106        C110   1.279       .  A
O107        C110   1.302       .  A
O108        H118   0.990       .  S
O109        H122   0.990       .  S
C110       C1478   1.509       .  S
Zr133       O134   2.442       .  S
Zr133       O135   2.434       .  S
Zr133       O136   2.437       .  S
Zr133       O139   2.398       .  S
Zr133       O141   2.375       .  S
Zr133       O142   2.389       .  S
Zr133       O143   2.401       .  S
Zr133       O144   2.404       .  S
O134        H190   0.991       .  S
O134        H198   0.990       .  S
O135        C155   1.285       .  A
O136        C157   1.282       .  A
O137       Zr147   2.518       .  S
O137        C156   1.301       .  A
O138       Zr146   2.405       .  S
O138        C157   1.280       .  A
O139        C156   1.278       .  A
O140       Zr148   2.428       .  S
O140        C155   1.282       .  A
O141       Zr146   2.396       .  S
O141       Zr148   2.375       .  S
O142       Zr147   2.396       .  S
O142       Zr148   2.387       .  S
O142        H177   0.965       .  S
O143       Zr146   2.397       .  S
O143       Zr163   2.398       .  S
O143        H180   0.966       .  S
O144       Zr147   2.394       .  S
O144       Zr163   2.387       .  S
Zr145       O170   2.440       .  S
Zr145       O164   2.423       .  S
Zr145       O172   2.402       .  S
Zr145       O160   2.453       .  S
Zr145       O151   2.405       .  S
Zr145       O152   2.396       .  S
Zr145       O153   2.368       .  S
Zr145       O154   2.393       .  S
Zr146       O165   2.436       .  S
Zr146       O158   2.434       .  S
Zr146       O159   2.419       .  S
Zr146       O152   2.393       .  S
Zr146       O153   2.385       .  S
Zr147       O149   2.436       .  S
Zr147       O171   2.435       .  S
Zr147       O173   2.506       .  S
Zr147       O151   2.407       .  S
Zr147       O154   2.390       .  S
Zr148       O174   2.433       .  S
Zr148       O175   2.435       .  S
Zr148       O150   2.439       .  S
Zr148       O151   2.392       .  S
Zr148       O152   2.406       .  S
O149        H186   0.990       .  S
O150        H181   0.990       .  S
O150        H195   0.990       .  S
O152        H178   0.967       .  S
O153       Zr163   2.374       .  S
O154       Zr163   2.381       .  S
O154        H179   0.962       .  S
C155       C1277   1.495       .  S
C156       C1373   1.501       .  S
C157       C1334   1.465       .  S
O158        H194   0.990       .  S
O159        C161   1.282       .  A
O160        C161   1.286       .  A
C161       C1301   1.482       .  S
O162       Zr163   2.439       .  S
O162        H191   0.990       .  S
Zr163       O166   2.438       .  S
Zr163       O167   2.438       .  S
Zr163       O168   2.416       .  S
O164        C169   1.281       .  A
O165        H182   0.990       .  S
O165        H197   0.989       .  S
O166        H183   0.990       .  S
O167        H187   0.989       .  S
O167        H196   0.990       .  S
O168        C169   1.280       .  A
C169       C1349   1.459       .  S
O170        H189   0.990       .  S
O170        H193   0.991       .  S
O171        H185   0.990       .  S
O171        H192   0.990       .  S
O172        C176   1.279       .  A
O173        C176   1.299       .  A
O174        H184   0.990       .  S
O175        H188   0.990       .  S
C176       C1397   1.491       .  S
Zr199       O200   2.445   1_455  S
Zr199       O201   2.457       .  S
Zr199       O202   2.436   1_455  S
Zr199       O205   2.392       .  S
Zr199       O207   2.373       .  S
Zr199       O208   2.385       .  S
Zr199       O209   2.410       .  S
Zr199       O210   2.406       .  S
O200        H256   0.990       .  S
O200        H264   0.991       .  S
O201        C221   1.286       .  A
O202        C223   1.281       .  A
O203       Zr213   2.517       .  S
O203        C222   1.300       .  A
O204       Zr212   2.397       .  S
O204        C223   1.277   1_455  A
O205        C222   1.277       .  A
O206       Zr214   2.428       .  S
O206        C221   1.282       .  A
O207       Zr212   2.402       .  S
O207       Zr214   2.376       .  S
O208       Zr213   2.394       .  S
O208       Zr214   2.388       .  S
O208        H243   0.964       .  S
O209       Zr212   2.403       .  S
O209       Zr229   2.405       .  S
O209        H246   0.967       .  S
O210       Zr213   2.396       .  S
O210       Zr229   2.386       .  S
Zr211       O236   2.439       .  S
Zr211       O230   2.413       .  S
Zr211       O238   2.398       .  S
Zr211       O226   2.449       .  S
Zr211       O217   2.399       .  S
Zr211       O218   2.399       .  S
Zr211       O219   2.359       .  S
Zr211       O220   2.398       .  S
Zr212       O231   2.440       .  S
Zr212       O224   2.434       .  S
Zr212       O225   2.438       .  S
Zr212       O218   2.386       .  S
Zr212       O219   2.373       .  S
Zr213       O215   2.436       .  S
Zr213       O237   2.436       .  S
Zr213       O239   2.508       .  S
Zr213       O217   2.396       .  S
Zr213       O220   2.393       .  S
Zr214       O240   2.434       .  S
Zr214       O241   2.435       .  S
Zr214       O216   2.438       .  S
Zr214       O217   2.383       .  S
Zr214       O218   2.417       .  S
O215        H252   0.990       .  S
O216        H247   0.990       .  S
O216        H261   0.990       .  S
O218        H244   0.966       .  S
O219       Zr229   2.365       .  S
O220       Zr229   2.385       .  S
O220        H245   0.966       .  S
C221       C1181   1.487   1_455  S
C222       C1214   1.492       .  S
C223       C1325   1.461       .  S
O224        H260   0.990       .  S
O225        C227   1.285       .  A
O226        C227   1.286       .  A
C227       C1253   1.488       .  S
O228       Zr229   2.438       .  S
O228        H257   0.990       .  S
Zr229       O232   2.436       .  S
Zr229       O233   2.439       .  S
Zr229       O234   2.418       .  S
O230        C235   1.281       .  A
O231        H248   0.990       .  S
O231        H263   0.990       .  S
O232        H249   0.989       .  S
O233        H253   0.990       .  S
O233        H262   0.990       .  S
O234        C235   1.282       .  A
C235       C1358   1.467       .  S
O236        H255   0.990       .  S
O236        H259   0.990       .  S
O237        H251   0.990       .  S
O237        H258   0.990       .  S
O238        C242   1.279       .  A
O239        C242   1.300       .  A
O240        H250   0.990       .  S
O241        H254   0.990       .  S
C242       C1238   1.489       .  S
Zr265       O266   2.445   1_545  S
Zr265       O267   2.439   1_545  S
Zr265       O268   2.429   1_545  S
Zr265       O271   2.405       .  S
Zr265       O273   2.377       .  S
Zr265       O274   2.390       .  S
Zr265       O275   2.413       .  S
Zr265       O276   2.402       .  S
O266        H322   0.990       .  S
O266        H330   0.991       .  S
O267        C287   1.283       .  A
O268        C289   1.280       .  A
O269       Zr279   2.513       .  S
O269        C288   1.300       .  A
O270       Zr278   2.415   1_565  S
O270        C289   1.279       .  A
O271        C288   1.278       .  A
O272       Zr280   2.426       .  S
O272        C287   1.282   1_545  A
O273       Zr278   2.402       .  S
O273       Zr280   2.382       .  S
O274       Zr279   2.396       .  S
O274       Zr280   2.390       .  S
O274        H309   0.964       .  S
O275       Zr278   2.403       .  S
O275       Zr295   2.402       .  S
O275        H312   0.965       .  S
O276       Zr279   2.393       .  S
O276       Zr295   2.384       .  S
Zr277       O302   2.440       .  S
Zr277       O296   2.416       .  S
Zr277       O304   2.381       .  S
Zr277       O292   2.432       .  S
Zr277       O283   2.397       .  S
Zr277       O284   2.394       .  S
Zr277       O285   2.357       .  S
Zr277       O286   2.391       .  S
Zr278       O297   2.440       .  S
Zr278       O290   2.436       .  S
Zr278       O291   2.438       .  S
Zr278       O284   2.389       .  S
Zr278       O285   2.379       .  S
Zr279       O281   2.434       .  S
Zr279       O303   2.438       .  S
Zr279       O305   2.509       .  S
Zr279       O283   2.401       .  S
Zr279       O286   2.391       .  S
Zr280       O306   2.436       .  S
Zr280       O307   2.435       .  S
Zr280       O282   2.439       .  S
Zr280       O283   2.391       .  S
Zr280       O284   2.412       .  S
O281        H318   0.990       .  S
O282        H313   0.990       .  S
O282        H327   0.990       .  S
O284        H310   0.968       .  S
O285       Zr295   2.359       .  S
O286       Zr295   2.381       .  S
O286        H311   0.966       .  S
C287       C1310   1.481       .  S
C288       C1229   1.490       .  S
C289       C1133   1.466       .  S
O290        H326   0.990       .  S
O291        C293   1.286       .  A
O292        C293   1.285       .  A
C293       C1526   1.484       .  S
O294       Zr295   2.435       .  S
O294        H323   0.990       .  S
Zr295       O298   2.434       .  S
Zr295       O299   2.436       .  S
Zr295       O300   2.428       .  S
O296        C301   1.281       .  A
O297        H314   0.990   1_545  S
O297        H329   0.990   1_545  S
O298        H315   0.990       .  S
O299        H319   0.990       .  S
O299        H328   0.990       .  S
O300        C301   1.283       .  A
C301       C1157   1.471       .  S
O302        H321   0.990       .  S
O302        H325   0.990       .  S
O303        H317   0.990       .  S
O303        H324   0.990       .  S
O304        C308   1.276       .  A
O305        C308   1.300       .  A
O306        H316   0.990       .  S
O307        H320   0.990       .  S
C308       C1205   1.495       .  S
Zr331       O332   2.444       .  S
Zr331       O333   2.439       .  S
Zr331       O334   2.442       .  S
Zr331       O337   2.395       .  S
Zr331       O339   2.377       .  S
Zr331       O340   2.392       .  S
Zr331       O341   2.410       .  S
Zr331       O342   2.407       .  S
O332        H388   0.991       .  S
O332        H396   0.991       .  S
O333        C353   1.283       .  A
O334        C355   1.281       .  A
O335       Zr345   2.511       .  S
O335        C354   1.300       .  A
O336       Zr344   2.414       .  S
O336        C355   1.278       .  A
O337        C354   1.276       .  A
O338       Zr346   2.439       .  S
O338        C353   1.285       .  A
O339       Zr344   2.393       .  S
O339       Zr346   2.385       .  S
O340       Zr345   2.390       .  S
O340       Zr346   2.387       .  S
O340        H375   0.965       .  S
O341       Zr344   2.405       .  S
O341       Zr361   2.403       .  S
O341        H378   0.964       .  S
O342       Zr345   2.395       .  S
O342       Zr361   2.389       .  S
Zr343       O368   2.446       .  S
Zr343       O362   2.439       .  S
Zr343       O370   2.393       .  S
Zr343       O358   2.443       .  S
Zr343       O349   2.411       .  S
Zr343       O350   2.404       .  S
Zr343       O351   2.368       .  S
Zr343       O352   2.389       .  S
Zr344       O363   2.444       .  S
Zr344       O356   2.435       .  S
Zr344       O357   2.430       .  S
Zr344       O350   2.384       .  S
Zr344       O351   2.393       .  S
Zr345       O347   2.436       .  S
Zr345       O369   2.435   1_554  S
Zr345       O371   2.509       .  S
Zr345       O349   2.400       .  S
Zr345       O352   2.380       .  S
Zr346       O372   2.435       .  S
Zr346       O373   2.436       .  S
Zr346       O348   2.437       .  S
Zr346       O349   2.392       .  S
Zr346       O350   2.417       .  S
O347        H384   0.990       .  S
O348        H379   0.991       .  S
O348        H393   0.990       .  S
O350        H376   0.966       .  S
O351       Zr361   2.369       .  S
O352       Zr361   2.377       .  S
O352        H377   0.963       .  S
C353       C1502   1.494   1_554  S
C354       C1637   1.490       .  S
C355       C1142   1.466       .  S
O356        H392   0.990       .  S
O357        C359   1.283       .  A
O358        C359   1.286       .  A
C359       C1190   1.483       .  S
O360       Zr361   2.436       .  S
O360        H389   0.990       .  S
Zr361       O364   2.435       .  S
Zr361       O365   2.435       .  S
Zr361       O366   2.436       .  S
O362        C367   1.285       .  A
O363        H380   0.990       .  S
O363        H395   0.990       .  S
O364        H381   0.990       .  S
O365        H385   0.990       .  S
O365        H394   0.990       .  S
O366        C367   1.284       .  A
C367       C1166   1.477       .  S
O368        H387   0.990       .  S
O368        H391   0.990       .  S
O369        H383   0.985       .  S
O369        H390   0.995       .  S
O370        C374   1.277       .  A
O371        C374   1.300       .  A
O372        H382   0.990       .  S
O373        H386   0.990       .  S
C374       C1613   1.488       .  S
Zr397       O398   2.441       .  S
Zr397       O399   2.444       .  S
Zr397       O400   2.443       .  S
Zr397       O403   2.380       .  S
Zr397       O405   2.369       .  S
Zr397       O406   2.389       .  S
Zr397       O407   2.399       .  S
Zr397       O408   2.409       .  S
O398        H454   0.991       .  S
O398        H462   0.990       .  S
O399        C419   1.285       .  A
O400        C421   1.284       .  A
O401       Zr411   2.529       .  S
O401        C420   1.304       .  A
O402       Zr410   2.401       .  S
O402        C421   1.278       .  A
O403        C420   1.276       .  A
O404       Zr412   2.427       .  S
O404        C419   1.284       .  A
O405       Zr410   2.391       .  S
O405       Zr412   2.375       .  S
O406       Zr411   2.390       .  S
O406       Zr412   2.381       .  S
O406        H441   0.965       .  S
O407       Zr410   2.399       .  S
O407       Zr427   2.411       .  S
O407        H444   0.967       .  S
O408       Zr411   2.403       .  S
O408       Zr427   2.395       .  S
Zr409       O434   2.442       .  S
Zr409       O428   2.408       .  S
Zr409       O436   2.393       .  S
Zr409       O424   2.440       .  S
Zr409       O415   2.401       .  S
Zr409       O416   2.393       .  S
Zr409       O417   2.360       .  S
Zr409       O418   2.393       .  S
Zr410       O429   2.441       .  S
Zr410       O422   2.435       .  S
Zr410       O423   2.420       .  S
Zr410       O416   2.388       .  S
Zr410       O417   2.379       .  S
Zr411       O413   2.434       .  S
Zr411       O435   2.435       .  S
Zr411       O437   2.528       .  S
Zr411       O415   2.401       .  S
Zr411       O418   2.393       .  S
Zr412       O438   2.435       .  S
Zr412       O439   2.434       .  S
Zr412       O414   2.437       .  S
Zr412       O415   2.390       .  S
Zr412       O416   2.408       .  S
O413        H450   0.990       .  S
O414        H445   0.990       .  S
O414        H459   0.990       .  S
O416        H442   0.965       .  S
O417       Zr427   2.363       .  S
O418       Zr427   2.382       .  S
O418        H443   0.966       .  S
C419       C1550   1.487       .  S
C420       C1469   1.499       .  S
C421       C1094   1.465       .  S
O422        H458   0.990       .  S
O423        C425   1.282       .  A
O424        C425   1.286       .  A
C425       C1070   1.483       .  S
O426       Zr427   2.440       .  S
O426        H455   0.991       .  S
Zr427       O430   2.437       .  S
Zr427       O431   2.439       .  S
Zr427       O432   2.439       .  S
O428        C433   1.281       .  A
O429        H446   0.990       .  S
O429        H461   0.990       .  S
O430        H447   0.990       .  S
O431        H451   0.990       .  S
O431        H460   0.990       .  S
O432        C433   1.285       .  A
C433       C1109   1.474       .  S
O434        H453   0.990       .  S
O434        H457   0.990       .  S
O435        H449   0.990       .  S
O435        H456   0.990       .  S
O436        C440   1.277       .  A
O437        C440   1.304       .  A
O438        H448   0.990       .  S
O439        H452   0.989       .  S
C440       C1445   1.497       .  S
Zr463       O464   2.445   1_655  S
Zr463       O465   2.451   1_655  S
Zr463       O466   2.450   1_655  S
Zr463       O469   2.407       .  S
Zr463       O471   2.376       .  S
Zr463       O472   2.389       .  S
Zr463       O473   2.411       .  S
Zr463       O474   2.410       .  S
O464        H520   0.991       .  S
O464        H528   0.991       .  S
O465        C485   1.285       .  A
O466        C487   1.283       .  A
O467       Zr477   2.516       .  S
O467        C486   1.300       .  A
O468       Zr476   2.398   1_455  S
O468        C487   1.276       .  A
O469        C486   1.279       .  A
O470       Zr478   2.425       .  S
O470        C485   1.282   1_655  A
O471       Zr476   2.405       .  S
O471       Zr478   2.382       .  S
O472       Zr477   2.393       .  S
O472       Zr478   2.386       .  S
O472        H507   0.964       .  S
O473       Zr476   2.401       .  S
O473       Zr493   2.405       .  S
O473        H510   0.965       .  S
O474       Zr477   2.396       .  S
O474       Zr493   2.391       .  S
Zr475       O500   2.444       .  S
Zr475       O494   2.417       .  S
Zr475       O502   2.395       .  S
Zr475       O490   2.441       .  S
Zr475       O481   2.400       .  S
Zr475       O482   2.397       .  S
Zr475       O483   2.358       .  S
Zr475       O484   2.396       .  S
Zr476       O495   2.441       .  S
Zr476       O488   2.435       .  S
Zr476       O489   2.424       .  S
Zr476       O482   2.387       .  S
Zr476       O483   2.379       .  S
Zr477       O479   2.434       .  S
Zr477       O501   2.437       .  S
Zr477       O503   2.515       .  S
Zr477       O481   2.399       .  S
Zr477       O484   2.388       .  S
Zr478       O504   2.435       .  S
Zr478       O505   2.435       .  S
Zr478       O480   2.438       .  S
Zr478       O481   2.389       .  S
Zr478       O482   2.413       .  S
O479        H516   0.990       .  S
O480        H511   0.990       .  S
O480        H525   0.990       .  S
O482        H508   0.966       .  S
O483       Zr493   2.361       .  S
O484       Zr493   2.384       .  S
O484        H509   0.966       .  S
C485        C998   1.485       .  S
C486       C1013   1.496       .  S
C487       C1085   1.463       .  S
O488        H524   0.990       .  S
O489        C491   1.283       .  A
O490        C491   1.286       .  A
C491       C1421   1.487       .  S
O492       Zr493   2.439       .  S
O492        H521   0.990       .  S
Zr493       O496   2.436       .  S
Zr493       O497   2.437       .  S
Zr493       O498   2.439       .  S
O494        C499   1.283       .  A
O495        H512   0.990       .  S
O495        H527   0.990       .  S
O496        H513   0.990       .  S
O497        H517   0.990       .  S
O497        H526   0.990       .  S
O498        C499   1.285       .  A
C499       C1118   1.483       .  S
O500        H519   0.990       .  S
O500        H523   0.990       .  S
O501        H515   0.990       .  S
O501        H522   0.990       .  S
O502        C506   1.278       .  A
O503        C506   1.301       .  A
O504        H514   0.990       .  S
O505        H518   0.990       .  S
C506       C1037   1.490       .  S
Zr529       O530   2.444   1_655  S
Zr529       O531   2.454   1_655  S
Zr529       O532   2.444   1_655  S
Zr529       O535   2.407       .  S
Zr529       O537   2.372       .  S
Zr529       O538   2.392       .  S
Zr529       O539   2.417       .  S
Zr529       O540   2.403       .  S
O530        H586   0.990       .  S
O530        H594   0.991       .  S
O531        C551   1.286       .  A
O532        C553   1.282       .  A
O533       Zr543   2.520       .  S
O533        C552   1.302       .  A
O534       Zr542   2.402   1_455  S
O534        C553   1.276       .  A
O535        C552   1.278       .  A
O536       Zr544   2.413       .  S
O536        C551   1.279   1_655  A
O537       Zr542   2.392       .  S
O537       Zr544   2.382       .  S
O538       Zr543   2.397       .  S
O538       Zr544   2.392       .  S
O538        H573   0.965       .  S
O539       Zr542   2.403       .  S
O539       Zr559   2.410       .  S
O539        H576   0.965   1_655  S
O540       Zr543   2.391       .  S
O540       Zr559   2.382       .  S
Zr541       O566   2.441       .  S
Zr541       O560   2.413       .  S
Zr541       O568   2.395       .  S
Zr541       O556   2.447       .  S
Zr541       O547   2.401       .  S
Zr541       O548   2.394       .  S
Zr541       O549   2.358       .  S
Zr541       O550   2.390       .  S
Zr542       O561   2.441       .  S
Zr542       O554   2.434       .  S
Zr542       O555   2.421       .  S
Zr542       O548   2.383       .  S
Zr542       O549   2.378       .  S
Zr543       O545   2.436       .  S
Zr543       O567   2.435       .  S
Zr543       O569   2.513       .  S
Zr543       O547   2.403       .  S
Zr543       O550   2.382       .  S
Zr544       O570   2.434       .  S
Zr544       O571   2.435       .  S
Zr544       O546   2.437       .  S
Zr544       O547   2.387       .  S
Zr544       O548   2.407       .  S
O545        H582   0.990       .  S
O546        H577   0.990       .  S
O546        H591   0.990       .  S
O548        H574   0.967       .  S
O549       Zr559   2.358       .  S
O550       Zr559   2.376       .  S
O550        H575   0.963       .  S
C551        C869   1.481       .  S
C552        C950   1.493       .  S
C553        C893   1.462       .  S
O554        H590   0.990       .  S
O555        C557   1.283       .  A
O556        C557   1.287       .  A
C557       C1286   1.494       .  S
O558       Zr559   2.434       .  S
O558        H587   0.990       .  S
Zr559       O562   2.434       .  S
Zr559       O563   2.430       .  S
Zr559       O564   2.439       .  S
O560        C565   1.281       .  A
O561        H578   0.990   1_655  S
O561        H593   0.990   1_655  S
O562        H579   0.990       .  S
O563        H583   0.990       .  S
O563        H592   0.990       .  S
O564        C565   1.285       .  A
C565        C926   1.467       .  S
O566        H585   0.990       .  S
O566        H589   0.990       .  S
O567        H581   0.990       .  S
O567        H588   0.990       .  S
O568        C572   1.280       .  A
O569        C572   1.301       .  A
O570        H580   0.990       .  S
O571        H584   0.990       .  S
C572        C965   1.499       .  S
Zr595       O596   2.445   1_545  S
Zr595       O597   2.452   1_545  S
Zr595       O598   2.450   1_545  S
Zr595       O601   2.396       .  S
Zr595       O603   2.376       .  S
Zr595       O604   2.395       .  S
Zr595       O605   2.416       .  S
Zr595       O606   2.406       .  S
O596        H652   0.990       .  S
O596        H660   0.991       .  S
O597        C617   1.285       .  A
O598        C619   1.282       .  A
O599       Zr609   2.520       .  S
O599        C618   1.301       .  A
O600       Zr608   2.402   1_565  S
O600        C619   1.276       .  A
O601        C618   1.277       .  A
O602       Zr610   2.427       .  S
O602        C617   1.283   1_545  A
O603       Zr608   2.402       .  S
O603       Zr610   2.386       .  S
O604       Zr609   2.404       .  S
O604       Zr610   2.389       .  S
O604        H639   0.965       .  S
O605       Zr608   2.410       .  S
O605       Zr625   2.401       .  S
O605        H642   0.964       .  S
O606       Zr609   2.397       .  S
O606       Zr625   2.381       .  S
Zr607       O632   2.439       .  S
Zr607       O626   2.412       .  S
Zr607       O634   2.388       .  S
Zr607       O622   2.436       .  S
Zr607       O613   2.401       .  S
Zr607       O614   2.393       .  S
Zr607       O615   2.362       .  S
Zr607       O616   2.391       .  S
Zr608       O627   2.444       .  S
Zr608       O620   2.434       .  S
Zr608       O621   2.438       .  S
Zr608       O614   2.383       .  S
Zr608       O615   2.375       .  S
Zr609       O611   2.436       .  S
Zr609       O633   2.435       .  S
Zr609       O635   2.538       .  S
Zr609       O613   2.404       .  S
Zr609       O616   2.371       .  S
Zr610       O636   2.434       .  S
Zr610       O637   2.435       .  S
Zr610       O612   2.438       .  S
Zr610       O613   2.396       .  S
Zr610       O614   2.414       .  S
O611        H648   0.990       .  S
O612        H643   0.990       .  S
O612        H657   0.990       .  S
O614        H640   0.966       .  S
O615       Zr625   2.362       .  S
O616       Zr625   2.381       .  S
O616        H641   0.964       .  S
C617       C1262   1.498       .  S
C618       C1406   1.493       .  S
C619        C902   1.461       .  S
O620        H656   0.990   1_545  S
O621        C623   1.285       .  A
O622        C623   1.284       .  A
C623        C854   1.491       .  S
O624       Zr625   2.439       .  S
O624        H653   0.990       .  S
Zr625       O628   2.436       .  S
Zr625       O629   2.439       .  S
Zr625       O630   2.426       .  S
O626        C631   1.281       .  A
O627        H644   0.990   1_545  S
O627        H659   0.991       .  S
O628        H645   0.990       .  S
O629        H649   0.990       .  S
O629        H658   0.990       .  S
O630        C631   1.284       .  A
C631        C917   1.462       .  S
O632        H651   0.990       .  S
O632        H655   0.990       .  S
O633        H647   0.990       .  S
O633        H654   0.990       .  S
O634        C638   1.278       .  A
O635        C638   1.306       .  A
O636        H646   0.990       .  S
O637        H650   0.990       .  S
C638       C1382   1.507       .  S
Zr661       O662   2.445   1_565  S
Zr661       O663   2.448   1_565  S
Zr661       O664   2.447   1_565  S
Zr661       O667   2.413       .  S
Zr661       O669   2.377       .  S
Zr661       O670   2.393       .  S
Zr661       O671   2.412       .  S
Zr661       O672   2.405       .  S
O662        H718   0.990       .  S
O662        H726   0.991       .  S
O663        C683   1.284       .  A
O664        C685   1.283       .  A
O665       Zr675   2.514       .  S
O665        C684   1.300       .  A
O666       Zr674   2.408   1_545  S
O666        C685   1.279       .  A
O667        C684   1.280       .  A
O668       Zr676   2.422       .  S
O668        C683   1.282   1_565  A
O669       Zr674   2.402       .  S
O669       Zr676   2.375       .  S
O670       Zr675   2.399       .  S
O670       Zr676   2.392       .  S
O670        H705   0.965       .  S
O671       Zr674   2.402       .  S
O671       Zr691   2.405       .  S
O671        H708   0.965       .  S
O672       Zr675   2.395       .  S
O672       Zr691   2.388       .  S
Zr673       O698   2.443       .  S
Zr673       O692   2.417       .  S
Zr673       O700   2.406       .  S
Zr673       O688   2.445       .  S
Zr673       O679   2.402       .  S
Zr673       O680   2.400       .  S
Zr673       O681   2.360       .  S
Zr673       O682   2.391       .  S
Zr674       O693   2.439       .  S
Zr674       O686   2.436       .  S
Zr674       O687   2.437       .  S
Zr674       O680   2.392       .  S
Zr674       O681   2.378       .  S
Zr675       O677   2.436       .  S
Zr675       O699   2.434       .  S
Zr675       O701   2.511       .  S
Zr675       O679   2.399       .  S
Zr675       O682   2.389       .  S
Zr676       O702   2.436       .  S
Zr676       O703   2.436       .  S
Zr676       O678   2.438       .  S
Zr676       O679   2.393       .  S
Zr676       O680   2.409       .  S
O677        H714   0.990       .  S
O678        H709   0.990       .  S
O678        H723   0.990       .  S
O680        H706   0.965       .  S
O681       Zr691   2.360       .  S
O682       Zr691   2.386       .  S
O682        H707   0.966       .  S
C683       C1061   1.486       .  S
C684       C1046   1.496       .  S
C685        C797   1.472       .  S
O686        H722   0.990       .  S
O687        C689   1.286       .  A
O688        C689   1.287       .  A
C689        C878   1.491       .  S
O690       Zr691   2.439       .  S
O690        H719   0.990       .  S
Zr691       O694   2.437       .  S
Zr691       O695   2.437       .  S
Zr691       O696   2.433       .  S
O692        C697   1.283       .  A
O693        H710   0.990       .  S
O693        H725   0.990       .  S
O694        H711   0.990       .  S
O695        H715   0.990       .  S
O695        H724   0.990       .  S
O696        C697   1.284       .  A
C697        C821   1.481       .  S
O698        H717   0.990       .  S
O698        H721   0.990       .  S
O699        H713   0.990       .  S
O699        H720   0.990       .  S
O700        C704   1.280       .  A
O701        C704   1.300       .  A
O702        H712   0.990       .  S
O703        H716   0.990       .  S
C704       C1022   1.493       .  S
Zr727       O728   2.443       .  S
Zr727       O729   2.449       .  S
Zr727       O730   2.449       .  S
Zr727       O733   2.386       .  S
Zr727       O735   2.374       .  S
Zr727       O736   2.391       .  S
Zr727       O737   2.402       .  S
Zr727       O738   2.410       .  S
O728        H784   0.990       .  S
O728        H792   0.990       .  S
O729        C749   1.287       .  A
O730        C751   1.284       .  A
O731       Zr741   2.507       .  S
O731        C750   1.299       .  A
O732       Zr740   2.411       .  S
O732        C751   1.279       .  A
O733        C750   1.276       .  A
O734       Zr742   2.432       .  S
O734        C749   1.283       .  A
O735       Zr740   2.399       .  S
O735       Zr742   2.383       .  S
O736       Zr741   2.401       .  S
O736       Zr742   2.381       .  S
O736        H771   0.965       .  S
O737       Zr740   2.396       .  S
O737       Zr757   2.405       .  S
O737        H774   0.966       .  S
O738       Zr741   2.398       .  S
O738       Zr757   2.387       .  S
Zr739       O764   2.443       .  S
Zr739       O758   2.425       .  S
Zr739       O766   2.395       .  S
Zr739       O754   2.446       .  S
Zr739       O745   2.409       .  S
Zr739       O746   2.395       .  S
Zr739       O747   2.363       .  S
Zr739       O748   2.390       .  S
Zr740       O759   2.437       .  S
Zr740       O752   2.436       .  S
Zr740       O753   2.428       .  S
Zr740       O746   2.388       .  S
Zr740       O747   2.383       .  S
Zr741       O743   2.437       .  S
Zr741       O765   2.437       .  S
Zr741       O767   2.513       .  S
Zr741       O745   2.399       .  S
Zr741       O748   2.392       .  S
Zr742       O768   2.436       .  S
Zr742       O769   2.436       .  S
Zr742       O744   2.436       .  S
Zr742       O745   2.394       .  S
Zr742       O746   2.407       .  S
O743        H780   0.989       .  S
O744        H775   0.990       .  S
O744        H789   0.990       .  S
O746        H772   0.966       .  S
O747       Zr757   2.372       .  S
O748       Zr757   2.374       .  S
O748        H773   0.965       .  S
C749        C845   1.501       .  S
C750        C974   1.487       .  S
C751        C806   1.470       .  S
O752        H788   0.990       .  S
O753        C755   1.284       .  A
O754        C755   1.287       .  A
C755        C989   1.488       .  S
O756       Zr757   2.434       .  S
O756        H785   0.990       .  S
Zr757       O760   2.434       .  S
Zr757       O761   2.439       .  S
Zr757       O762   2.435       .  S
O758        C763   1.283       .  A
O759        H776   0.990       .  S
O759        H791   0.990       .  S
O760        H777   0.990       .  S
O761        H781   0.990       .  S
O761        H790   0.990       .  S
O762        C763   1.284       .  A
C763        C830   1.478       .  S
O764        H783   0.990       .  S
O764        H787   0.990       .  S
O765        H779   0.990       .  S
O765        H786   0.990       .  S
O766        C770   1.278       .  A
O767        C770   1.301       .  A
O768        H778   0.990       .  S
O769        H782   0.990       .  S
C770        C941   1.492       .  S
C793        C794   1.402       .  A
C793        C798   1.399       .  A
C793        H803   1.083       .  S
C794        C799   1.477       .  S
C794        C795   1.411       .  A
C795        C796   1.401       .  A
C795        S800   1.803       .  S
C796        C797   1.404       .  A
C796        H801   1.084       .  S
C797        C798   1.410       .  A
C798        S802   1.809       .  S
C799        C804   1.412       .  A
C799        C808   1.399       .  A
S800        H816   1.405       .  S
S802        H813   1.407       .  S
C804        C805   1.405       .  A
C804        S809   1.806       .  S
C805        C806   1.401       .  A
C805        H810   1.083       .  S
C806        C807   1.412       .  A
C807        C808   1.396       .  A
C807        S811   1.802       .  S
C808        H812   1.084       .  S
S809        H814   1.407       .  S
S811        H815   1.407       .  S
C817        C818   1.402       .  A
C817        C822   1.400       .  A
C817        H827   1.084       .  S
C818        C823   1.477       .  S
C818        C819   1.409       .  A
C819        C820   1.395       .  A
C819        S824   1.805       .  S
C820        C821   1.407       .  A
C820        H825   1.084       .  S
C821        C822   1.417       .  A
C822        S826   1.803       .  S
C823        C828   1.408       .  A
C823        C832   1.402       .  A
S824        H840   1.405       .  S
S826        H837   1.403       .  S
C828        C829   1.402       .  A
C828        S833   1.807       .  S
C829        C830   1.406       .  A
C829        H834   1.083       .  S
C830        C831   1.414       .  A
C831        C832   1.399       .  A
C831        S835   1.802       .  S
C832        H836   1.084       .  S
S833        H838   1.407       .  S
S835        H839   1.407       .  S
C841        C842   1.401       .  A
C841        C846   1.402       .  A
C841        H851   1.084       .  S
C842        C847   1.485       .  S
C842        C843   1.411       .  A
C843        C844   1.404       .  A
C843        S848   1.805       .  S
C844        C845   1.411       .  A
C844        H849   1.083       .  S
C845        C846   1.421       .  A
C846        S850   1.802       .  S
C847        C852   1.407       .  A
C847        C856   1.402       .  A
S848        H864   1.405       .  S
S850        H861   1.407       .  S
C852        C853   1.404       .  A
C852        S857   1.806       .  S
C853        C854   1.409       .  A
C853        H858   1.082       .  S
C854        C855   1.417       .  A
C855        C856   1.403       .  A
C855        S859   1.800       .  S
C856        H860   1.084       .  S
S857        H862   1.407       .  S
S859        H863   1.407       .  S
C865        C866   1.400       .  A
C865        C870   1.399       .  A
C865        H875   1.084       .  S
C866        C871   1.484       .  S
C866        C867   1.415       .  A
C867        C868   1.403       .  A
C867        S872   1.804       .  S
C868        C869   1.404       .  A
C868        H873   1.084       .  S
C869        C870   1.417       .  A
C870        S874   1.804   1_455  S
C871        C876   1.410       .  A
C871        C880   1.398       .  A
S872        H888   1.405       .  S
S874        H885   1.406       .  S
C876        C877   1.408       .  A
C876        S881   1.805       .  S
C877        C878   1.408       .  A
C877        H882   1.083       .  S
C878        C879   1.419       .  A
C879        C880   1.397       .  A
C879        S883   1.797       .  S
C880        H884   1.084       .  S
S881        H886   1.407       .  S
S883        H887   1.404       .  S
C889        C890   1.403       .  A
C889        C894   1.399       .  A
C889        H899   1.083       .  S
C890        C895   1.473       .  S
C890        C891   1.409       .  A
C891        C892   1.397       .  A
C891        S896   1.803       .  S
C892        C893   1.402       .  A
C892        H897   1.084       .  S
C893        C894   1.407       .  A
C894        S898   1.807       .  S
C895        C900   1.412       .  A
C895        C904   1.399       .  A
S896        H912   1.406       .  S
S898        H909   1.407       .  S
C900        C901   1.401       .  A
C900        S905   1.807       .  S
C901        C902   1.399       .  A
C901        H906   1.083       .  S
C902        C903   1.411       .  A
C903        C904   1.395       .  A
C903        S907   1.802       .  S
C904        H908   1.084       .  S
S905        H910   1.407       .  S
S907        H911   1.407       .  S
C913        C914   1.404       .  A
C913        C918   1.398       .  A
C913        H923   1.084       .  S
C914        C919   1.470       .  S
C914        C915   1.409       .  A
C915        C916   1.391       .  A
C915        S920   1.805       .  S
C916        C917   1.403       .  A
C916        H921   1.084       .  S
C917        C918   1.411       .  A
C918        S922   1.805       .  S
C919        C924   1.408       .  A
C919        C928   1.397       .  A
S920        H936   1.407       .  S
S922        H933   1.407       .  S
C924        C925   1.403       .  A
C924        S929   1.806       .  S
C925        C926   1.405       .  A
C925        H930   1.083       .  S
C926        C927   1.412       .  A
C927        C928   1.388       .  A
C927        S931   1.797       .  S
C928        H932   1.085       .  S
S929        H934   1.407       .  S
S931        H935   1.403       .  S
C937        C938   1.412       .  A
C937        C942   1.412       .  A
C937        H947   1.083       .  S
C938        C943   1.510       .  S
C938        C939   1.417       .  A
C939        C940   1.406       .  A
C939        S944   1.804       .  S
C940        C941   1.406       .  A
C940        H945   1.084       .  S
C941        C942   1.414       .  A
C942        S946   1.801       .  S
C943        C948   1.418       .  A
C943        C952   1.407       .  A
S944        H960   1.406       .  S
S946        H957   1.404       .  S
C948        C949   1.414       .  A
C948        S953   1.807       .  S
C949        C950   1.406   1_455  A
C949        H954   1.083       .  S
C950        C951   1.415   1_655  A
C951        C952   1.407       .  A
C951        S955   1.798   1_455  S
C952        H956   1.084       .  S
S953        H958   1.407       .  S
S955        H959   1.406       .  S
C961        C962   1.404       .  A
C961        C966   1.401       .  A
C961        H971   1.084       .  S
C962        C967   1.510       .  S
C962        C963   1.424       .  A
C963        C964   1.415       .  A
C963        S968   1.805       .  S
C964        C965   1.407       .  A
C964        H969   1.083       .  S
C965        C966   1.419       .  A
C966        S970   1.807       .  S
C967        C972   1.420       .  A
C967        C976   1.406       .  A
S968        H984   1.406       .  S
S970        H981   1.408       .  S
C972        C973   1.417       .  A
C972        S977   1.806       .  S
C973        C974   1.406       .  A
C973        H978   1.083       .  S
C974        C975   1.413       .  A
C975        C976   1.402       .  A
C975        S979   1.802       .  S
C976        H980   1.084       .  S
S977        H982   1.407       .  S
S979        H983   1.407       .  S
C985        C986   1.402       .  A
C985        C990   1.400       .  A
C985        H995   1.084       .  S
C986        C991   1.486       .  S
C986        C987   1.413       .  A
C987        C988   1.404       .  A
C987        S992   1.804       .  S
C988        C989   1.407       .  A
C988        H993   1.084       .  S
C989        C990   1.417       .  A
C990        S994   1.802       .  S
C991        C996   1.408       .  A
C991       C1000   1.404       .  A
S992       H1008   1.405       .  S
S994       H1005   1.407       .  S
C996        C997   1.402       .  A
C996       S1001   1.807       .  S
C997        C998   1.407       .  A
C997       H1002   1.083   1_455  S
C998        C999   1.415       .  A
C999       C1000   1.405       .  A
C999       S1003   1.802       .  S
C1000      H1004   1.084       .  S
S1001      H1006   1.407   1_455  S
S1003      H1007   1.407       .  S
C1009      C1010   1.405       .  A
C1009      C1014   1.404       .  A
C1009      H1019   1.083       .  S
C1010      C1015   1.516       .  S
C1010      C1011   1.424       .  A
C1011      C1012   1.416       .  A
C1011      S1016   1.803       .  S
C1012      C1013   1.406   1_455  A
C1012      H1017   1.083   1_455  S
C1013      C1014   1.416   1_655  A
C1014      S1018   1.801   1_455  S
C1015      C1020   1.420       .  A
C1015      C1024   1.410       .  A
S1016      H1032   1.407       .  S
S1018      H1029   1.406       .  S
C1020      C1021   1.413       .  A
C1020      S1025   1.806       .  S
C1021      C1022   1.406       .  A
C1021      H1026   1.083       .  S
C1022      C1023   1.415       .  A
C1023      C1024   1.410       .  A
C1023      S1027   1.803       .  S
C1024      H1028   1.083       .  S
S1025      H1030   1.407       .  S
S1027      H1031   1.406       .  S
C1033      C1034   1.410       .  A
C1033      C1038   1.410       .  A
C1033      H1043   1.083       .  S
C1034      C1039   1.514       .  S
C1034      C1035   1.422       .  A
C1035      C1036   1.410       .  A
C1035      S1040   1.804       .  S
C1036      C1037   1.405       .  A
C1036      H1041   1.084       .  S
C1037      C1038   1.414       .  A
C1038      S1042   1.803       .  S
C1039      C1044   1.422       .  A
C1039      C1048   1.405       .  A
S1040      H1056   1.406       .  S
S1042      H1053   1.406       .  S
C1044      C1045   1.418   1_545  A
C1044      S1049   1.806       .  S
C1045      C1046   1.406       .  A
C1045      H1050   1.083       .  S
C1046      C1047   1.416       .  A
C1047      C1048   1.404   1_565  A
C1047      S1051   1.802       .  S
C1048      H1052   1.083       .  S
S1049      H1054   1.407   1_545  S
S1051      H1055   1.406       .  S
C1057      C1058   1.404       .  A
C1057      C1062   1.404       .  A
C1057      H1067   1.084       .  S
C1058      C1063   1.483       .  S
C1058      C1059   1.411       .  A
C1059      C1060   1.397       .  A
C1059      S1064   1.805   1_545  S
C1060      C1061   1.406       .  A
C1060      H1065   1.084   1_545  S
C1061      C1062   1.417       .  A
C1062      S1066   1.802       .  S
C1063      C1068   1.410       .  A
C1063      C1072   1.401       .  A
S1064      H1080   1.406   1_565  S
S1066      H1077   1.407       .  S
C1068      C1069   1.405       .  A
C1068      S1073   1.806       .  S
C1069      C1070   1.407       .  A
C1069      H1074   1.083       .  S
C1070      C1071   1.416       .  A
C1071      C1072   1.397       .  A
C1071      S1075   1.803       .  S
C1072      H1076   1.084       .  S
S1073      H1078   1.407       .  S
S1075      H1079   1.407       .  S
C1081      C1082   1.399       .  A
C1081      C1086   1.397       .  A
C1081      H1091   1.084       .  S
C1082      C1087   1.472       .  S
C1082      C1083   1.413       .  A
C1083      C1084   1.397       .  A
C1083      S1088   1.805       .  S
C1084      C1085   1.400       .  A
C1084      H1089   1.084       .  S
C1085      C1086   1.413       .  A
C1086      S1090   1.802       .  S
C1087      C1092   1.407       .  A
C1087      C1096   1.401       .  A
S1088      H1104   1.406       .  S
S1090      H1101   1.404       .  S
C1092      C1093   1.403       .  A
C1092      S1097   1.805       .  S
C1093      C1094   1.403       .  A
C1093      H1098   1.083       .  S
C1094      C1095   1.411       .  A
C1095      C1096   1.394       .  A
C1095      S1099   1.804       .  S
C1096      H1100   1.084       .  S
S1097      H1102   1.407       .  S
S1099      H1103   1.407       .  S
C1105      C1106   1.402       .  A
C1105      C1110   1.399       .  A
C1105      H1115   1.084       .  S
C1106      C1111   1.472       .  S
C1106      C1107   1.409       .  A
C1107      C1108   1.393       .  A
C1107      S1112   1.806       .  S
C1108      C1109   1.405       .  A
C1108      H1113   1.084       .  S
C1109      C1110   1.414       .  A
C1110      S1114   1.802       .  S
C1111      C1116   1.405       .  A
C1111      C1120   1.400       .  A
S1112      H1128   1.405       .  S
S1114      H1125   1.407       .  S
C1116      C1117   1.399       .  A
C1116      S1121   1.808       .  S
C1117      C1118   1.409       .  A
C1117      H1122   1.082       .  S
C1118      C1119   1.416       .  A
C1119      C1120   1.397       .  A
C1119      S1123   1.800       .  S
C1120      H1124   1.084       .  S
S1121      H1126   1.407       .  S
S1123      H1127   1.407       .  S
C1129      C1130   1.402       .  A
C1129      C1134   1.393       .  A
C1129      H1139   1.084       .  S
C1130      C1135   1.470       .  S
C1130      C1131   1.408       .  A
C1131      C1132   1.399       .  A
C1131      S1136   1.803       .  S
C1132      C1133   1.406       .  A
C1132      H1137   1.084       .  S
C1133      C1134   1.409       .  A
C1134      S1138   1.804       .  S
C1135      C1140   1.410       .  A
C1135      C1144   1.398       .  A
S1136      H1152   1.405       .  S
S1138      H1149   1.407       .  S
C1140      C1141   1.402       .  A
C1140      S1145   1.806       .  S
C1141      C1142   1.401       .  A
C1141      H1146   1.083       .  S
C1142      C1143   1.412       .  A
C1143      C1144   1.394       .  A
C1143      S1147   1.802       .  S
C1144      H1148   1.084       .  S
S1145      H1150   1.407       .  S
S1147      H1151   1.406       .  S
C1153      C1154   1.404       .  A
C1153      C1158   1.398       .  A
C1153      H1163   1.084       .  S
C1154      C1159   1.477       .  S
C1154      C1155   1.411       .  A
C1155      C1156   1.395       .  A
C1155      S1160   1.805       .  S
C1156      C1157   1.403       .  A
C1156      H1161   1.084       .  S
C1157      C1158   1.413       .  A
C1158      S1162   1.805       .  S
C1159      C1164   1.410       .  A
C1159      C1168   1.400       .  A
S1160      H1176   1.405       .  S
S1162      H1173   1.407       .  S
C1164      C1165   1.402       .  A
C1164      S1169   1.807       .  S
C1165      C1166   1.402       .  A
C1165      H1170   1.078       .  S
C1166      C1167   1.415       .  A
C1167      C1168   1.397       .  A
C1167      S1171   1.801       .  S
C1168      H1172   1.084       .  S
S1169      H1174   1.407       .  S
S1171      H1175   1.405       .  S
C1177      C1178   1.401       .  A
C1177      C1182   1.401   1_655  A
C1177      H1187   1.084   1_655  S
C1178      C1183   1.489       .  S
C1178      C1179   1.415       .  A
C1179      C1180   1.404       .  A
C1179      S1184   1.803       .  S
C1180      C1181   1.404       .  A
C1180      H1185   1.084       .  S
C1181      C1182   1.417   1_655  A
C1182      S1186   1.802       .  S
C1183      C1188   1.412       .  A
C1183      C1192   1.402       .  A
S1184      H1200   1.406       .  S
S1186      H1197   1.405       .  S
C1188      C1189   1.407       .  A
C1188      S1193   1.806       .  S
C1189      C1190   1.406       .  A
C1189      H1194   1.083       .  S
C1190      C1191   1.414       .  A
C1191      C1192   1.400       .  A
C1191      S1195   1.800       .  S
C1192      H1196   1.084       .  S
S1193      H1198   1.407       .  S
S1195      H1199   1.406       .  S
C1201      C1202   1.406       .  A
C1201      C1206   1.401       .  A
C1201      H1211   1.084       .  S
C1202      C1207   1.512       .  S
C1202      C1203   1.424       .  A
C1203      C1204   1.414       .  A
C1203      S1208   1.803       .  S
C1204      C1205   1.405       .  A
C1204      H1209   1.084       .  S
C1205      C1206   1.420       .  A
C1206      S1210   1.808       .  S
C1207      C1212   1.421   1_655  A
C1207      C1216   1.404       .  A
S1208      H1224   1.405       .  S
S1210      H1221   1.408       .  S
C1212      C1213   1.421       .  A
C1212      S1217   1.806       .  S
C1213      C1214   1.408       .  A
C1213      H1218   1.082       .  S
C1214      C1215   1.417   1_455  A
C1215      C1216   1.400       .  A
C1215      S1219   1.807       .  S
C1216      H1220   1.084       .  S
S1217      H1222   1.407       .  S
S1219      H1223   1.407   1_655  S
C1225      C1226   1.407       .  A
C1225      C1230   1.407   1_565  A
C1225      H1235   1.084       .  S
C1226      C1231   1.508       .  S
C1226      C1227   1.419       .  A
C1227      C1228   1.411       .  A
C1227      S1232   1.803       .  S
C1228      C1229   1.406   1_565  A
C1228      H1233   1.084       .  S
C1229      C1230   1.414       .  A
C1230      S1234   1.801       .  S
C1231      C1236   1.414       .  A
C1231      C1240   1.412       .  A
S1232      H1248   1.407       .  S
S1234      H1245   1.407       .  S
C1236      C1237   1.408       .  A
C1236      S1241   1.806       .  S
C1237      C1238   1.407       .  A
C1237      H1242   1.083       .  S
C1238      C1239   1.412       .  A
C1239      C1240   1.412       .  A
C1239      S1243   1.801       .  S
C1240      H1244   1.083       .  S
S1241      H1246   1.407       .  S
S1243      H1247   1.405       .  S
C1249      C1250   1.401       .  A
C1249      C1254   1.401       .  A
C1249      H1259   1.084       .  S
C1250      C1255   1.488       .  S
C1250      C1251   1.417       .  A
C1251      C1252   1.407       .  A
C1251      S1256   1.807       .  S
C1252      C1253   1.405       .  A
C1252      H1257   1.084       .  S
C1253      C1254   1.417       .  A
C1254      S1258   1.803       .  S
C1255      C1260   1.407       .  A
C1255      C1264   1.402       .  A
S1256      H1272   1.402       .  S
S1258      H1269   1.406       .  S
C1260      C1261   1.405       .  A
C1260      S1265   1.806       .  S
C1261      C1262   1.410       .  A
C1261      H1266   1.082       .  S
C1262      C1263   1.422       .  A
C1263      C1264   1.404       .  A
C1263      S1267   1.802       .  S
C1264      H1268   1.084       .  S
S1265      H1270   1.407       .  S
S1267      H1271   1.407       .  S
C1273      C1274   1.402       .  A
C1273      C1278   1.400       .  A
C1273      H1283   1.084       .  S
C1274      C1279   1.485       .  S
C1274      C1275   1.410       .  A
C1275      C1276   1.400       .  A
C1275      S1280   1.805       .  S
C1276      C1277   1.409       .  A
C1276      H1281   1.082       .  S
C1277      C1278   1.419       .  A
C1278      S1282   1.802       .  S
C1279      C1284   1.407       .  A
C1279      C1288   1.404       .  A
S1280      H1296   1.406       .  S
S1282      H1293   1.408       .  S
C1284      C1285   1.402       .  A
C1284      S1289   1.808       .  S
C1285      C1286   1.412       .  A
C1285      H1290   1.082       .  S
C1286      C1287   1.417       .  A
C1287      C1288   1.402       .  A
C1287      S1291   1.800       .  S
C1288      H1292   1.084       .  S
S1289      H1294   1.407       .  S
S1291      H1295   1.407       .  S
C1297      C1298   1.403       .  A
C1297      C1302   1.400       .  A
C1297      H1307   1.084       .  S
C1298      C1303   1.488       .  S
C1298      C1299   1.415       .  A
C1299      C1300   1.404       .  A
C1299      S1304   1.804       .  S
C1300      C1301   1.405       .  A
C1300      H1305   1.084       .  S
C1301      C1302   1.414       .  A
C1302      S1306   1.803       .  S
C1303      C1308   1.411       .  A
C1303      C1312   1.405       .  A
S1304      H1320   1.405       .  S
S1306      H1317   1.407       .  S
C1308      C1309   1.403       .  A
C1308      S1313   1.807   1_565  S
C1309      C1310   1.405       .  A
C1309      H1314   1.083   1_565  S
C1310      C1311   1.414       .  A
C1311      C1312   1.403       .  A
C1311      S1315   1.803       .  S
C1312      H1316   1.084       .  S
S1313      H1318   1.407       .  S
S1315      H1319   1.407       .  S
C1321      C1322   1.402       .  A
C1321      C1326   1.395       .  A
C1321      H1331   1.083       .  S
C1322      C1327   1.469       .  S
C1322      C1323   1.411       .  A
C1323      C1324   1.398       .  A
C1323      S1328   1.805       .  S
C1324      C1325   1.403       .  A
C1324      H1329   1.084       .  S
C1325      C1326   1.407       .  A
C1326      S1330   1.809       .  S
C1327      C1332   1.410       .  A
C1327      C1336   1.398       .  A
S1328      H1344   1.403       .  S
S1330      H1341   1.407       .  S
C1332      C1333   1.402       .  A
C1332      S1337   1.806       .  S
C1333      C1334   1.401       .  A
C1333      H1338   1.083       .  S
C1334      C1335   1.410       .  A
C1335      C1336   1.395       .  A
C1335      S1339   1.806       .  S
C1336      H1340   1.083       .  S
S1337      H1342   1.407       .  S
S1339      H1343   1.407       .  S
C1345      C1346   1.399       .  A
C1345      C1350   1.394       .  A
C1345      H1355   1.084       .  S
C1346      C1351   1.466       .  S
C1346      C1347   1.411       .  A
C1347      C1348   1.395       .  A
C1347      S1352   1.805       .  S
C1348      C1349   1.399       .  A
C1348      H1353   1.084       .  S
C1349      C1350   1.411       .  A
C1350      S1354   1.802       .  S
C1351      C1356   1.406       .  A
C1351      C1360   1.399       .  A
S1352      H1368   1.405       .  S
S1354      H1365   1.406       .  S
C1356      C1357   1.397       .  A
C1356      S1361   1.807       .  S
C1357      C1358   1.404       .  A
C1357      H1362   1.083       .  S
C1358      C1359   1.411       .  A
C1359      C1360   1.398       .  A
C1359      S1363   1.808       .  S
C1360      H1364   1.083       .  S
S1361      H1366   1.407       .  S
S1363      H1367   1.407       .  S
C1369      C1370   1.407       .  A
C1369      C1374   1.405       .  A
C1369      H1379   1.084       .  S
C1370      C1375   1.518       .  S
C1370      C1371   1.425       .  A
C1371      C1372   1.418       .  A
C1371      S1376   1.803       .  S
C1372      C1373   1.407       .  A
C1372      H1377   1.083       .  S
C1373      C1374   1.417       .  A
C1374      S1378   1.801       .  S
C1375      C1380   1.422       .  A
C1375      C1384   1.403       .  A
S1376      H1392   1.405       .  S
S1378      H1389   1.407       .  S
C1380      C1381   1.424       .  A
C1380      S1385   1.804       .  S
C1381      C1382   1.408       .  A
C1381      H1386   1.082       .  S
C1382      C1383   1.421       .  A
C1383      C1384   1.403       .  A
C1383      S1387   1.801       .  S
C1384      H1388   1.084       .  S
S1385      H1390   1.406       .  S
S1387      H1391   1.407       .  S
C1393      C1394   1.403       .  A
C1393      C1398   1.405       .  A
C1393      H1403   1.084       .  S
C1394      C1399   1.503       .  S
C1394      C1395   1.419       .  A
C1395      C1396   1.413       .  A
C1395      S1400   1.803       .  S
C1396      C1397   1.406       .  A
C1396      H1401   1.084       .  S
C1397      C1398   1.417       .  A
C1398      S1402   1.803       .  S
C1399      C1404   1.410       .  A
C1399      C1408   1.408       .  A
S1400      H1416   1.406       .  S
S1402      H1413   1.407       .  S
C1404      C1405   1.410       .  A
C1404      S1409   1.806       .  S
C1405      C1406   1.410   1_565  A
C1405      H1410   1.083   1_565  S
C1406      C1407   1.415   1_545  A
C1407      C1408   1.412       .  A
C1407      S1411   1.801   1_565  S
C1408      H1412   1.083       .  S
S1409      H1414   1.406       .  S
S1411      H1415   1.404       .  S
C1417      C1418   1.403       .  A
C1417      C1422   1.401       .  A
C1417      H1427   1.084       .  S
C1418      C1423   1.486       .  S
C1418      C1419   1.413       .  A
C1419      C1420   1.401       .  A
C1419      S1424   1.804       .  S
C1420      C1421   1.407       .  A
C1420      H1425   1.084       .  S
C1421      C1422   1.417       .  A
C1422      S1426   1.803       .  S
C1423      C1428   1.409       .  A
C1423      C1432   1.404       .  A
S1424      H1440   1.406       .  S
S1426      H1437   1.408       .  S
C1428      C1429   1.402   1_545  A
C1428      S1433   1.808   1_545  S
C1429      C1430   1.408   1_565  A
C1429      H1434   1.083       .  S
C1430      C1431   1.416       .  A
C1431      C1432   1.404       .  A
C1431      S1435   1.802       .  S
C1432      H1436   1.084       .  S
S1433      H1438   1.407       .  S
S1435      H1439   1.407       .  S
C1441      C1442   1.412       .  A
C1441      C1446   1.414       .  A
C1441      H1451   1.083       .  S
C1442      C1447   1.515       .  S
C1442      C1443   1.418       .  A
C1443      C1444   1.408       .  A
C1443      S1448   1.804       .  S
C1444      C1445   1.408       .  A
C1444      H1449   1.084       .  S
C1445      C1446   1.417       .  A
C1446      S1450   1.803       .  S
C1447      C1452   1.420       .  A
C1447      C1456   1.408       .  A
S1448      H1464   1.407       .  S
S1450      H1461   1.404       .  S
C1452      C1453   1.416       .  A
C1452      S1457   1.807       .  S
C1453      C1454   1.406   1_545  A
C1453      H1458   1.083       .  S
C1454      C1455   1.414       .  A
C1455      C1456   1.406   1_565  A
C1455      S1459   1.802       .  S
C1456      H1460   1.083       .  S
S1457      H1462   1.407       .  S
S1459      H1463   1.406       .  S
C1465      C1466   1.405       .  A
C1465      C1470   1.405       .  A
C1465      H1475   1.084       .  S
C1466      C1471   1.516       .  S
C1466      C1467   1.423       .  A
C1467      C1468   1.417       .  A
C1467      S1472   1.802       .  S
C1468      C1469   1.407       .  A
C1468      H1473   1.083       .  S
C1469      C1470   1.420       .  A
C1470      S1474   1.807       .  S
C1471      C1476   1.421       .  A
C1471      C1480   1.404       .  A
S1472      H1488   1.406       .  S
S1474      H1485   1.407       .  S
C1476      C1477   1.422       .  A
C1476      S1481   1.805       .  S
C1477      C1478   1.409       .  A
C1477      H1482   1.082       .  S
C1478      C1479   1.423       .  A
C1479      C1480   1.405       .  A
C1479      S1483   1.806       .  S
C1480      H1484   1.084       .  S
S1481      H1486   1.406       .  S
S1483      H1487   1.408       .  S
C1489      C1490   1.402       .  A
C1489      C1494   1.402       .  A
C1489      H1499   1.084       .  S
C1490      C1495   1.487       .  S
C1490      C1491   1.414       .  A
C1491      C1492   1.401       .  A
C1491      S1496   1.805       .  S
C1492      C1493   1.408       .  A
C1492      H1497   1.084       .  S
C1493      C1494   1.419       .  A
C1494      S1498   1.801       .  S
C1495      C1500   1.410       .  A
C1495      C1504   1.400       .  A
S1496      H1512   1.405       .  S
S1498      H1509   1.408       .  S
C1500      C1501   1.406       .  A
C1500      S1505   1.807       .  S
C1501      C1502   1.409       .  A
C1501      H1506   1.082       .  S
C1502      C1503   1.423       .  A
C1503      C1504   1.400       .  A
C1503      S1507   1.803       .  S
C1504      H1508   1.084       .  S
S1505      H1510   1.406       .  S
S1507      H1511   1.408       .  S
C1513      C1514   1.402       .  A
C1513      C1518   1.401       .  A
C1513      H1523   1.084       .  S
C1514      C1519   1.483       .  S
C1514      C1515   1.409       .  A
C1515      C1516   1.399       .  A
C1515      S1520   1.802       .  S
C1516      C1517   1.408       .  A
C1516      H1521   1.084       .  S
C1517      C1518   1.420       .  A
C1518      S1522   1.803       .  S
C1519      C1524   1.410       .  A
C1519      C1528   1.400       .  A
S1520      H1536   1.407       .  S
S1522      H1533   1.408       .  S
C1524      C1525   1.404       .  A
C1524      S1529   1.806       .  S
C1525      C1526   1.405       .  A
C1525      H1530   1.083       .  S
C1526      C1527   1.418       .  A
C1527      C1528   1.400       .  A
C1527      S1531   1.802       .  S
C1528      H1532   1.084       .  S
S1529      H1534   1.407       .  S
S1531      H1535   1.407       .  S
C1537      C1538   1.402       .  A
C1537      C1542   1.396       .  A
C1537      H1547   1.084       .  S
C1538      C1543   1.484       .  S
C1538      C1539   1.413       .  A
C1539      C1540   1.401       .  A
C1539      S1544   1.804       .  S
C1540      C1541   1.406       .  A
C1540      H1545   1.084       .  S
C1541      C1542   1.416       .  A
C1542      S1546   1.804       .  S
C1543      C1548   1.409       .  A
C1543      C1552   1.404       .  A
S1544      H1560   1.405       .  S
S1546      H1557   1.407       .  S
C1548      C1549   1.399       .  A
C1548      S1553   1.809       .  S
C1549      C1550   1.407       .  A
C1549      H1554   1.082       .  S
C1550      C1551   1.416       .  A
C1551      C1552   1.404       .  A
C1551      S1555   1.801       .  S
C1552      H1556   1.084       .  S
S1553      H1558   1.407       .  S
S1555      H1559   1.407       .  S
C1561      C1562   1.402       .  A
C1561      C1566   1.400       .  A
C1561      H1571   1.084       .  S
C1562      C1567   1.476       .  S
C1562      C1563   1.412       .  A
C1563      C1564   1.393       .  A
C1563      S1568   1.805       .  S
C1564      C1565   1.400       .  A
C1564      H1569   1.084       .  S
C1565      C1566   1.413       .  A
C1566      S1570   1.800       .  S
C1567      C1572   1.409       .  A
C1567      C1576   1.402       .  A
S1568      H1584   1.406       .  S
S1570      H1581   1.403       .  S
C1572      C1573   1.405       .  A
C1572      S1577   1.804       .  S
C1573      C1574   1.403       .  A
C1573      H1578   1.083       .  S
C1574      C1575   1.409       .  A
C1575      C1576   1.392       .  A
C1575      S1579   1.805       .  S
C1576      H1580   1.084       .  S
S1577      H1582   1.407       .  S
S1579      H1583   1.407       .  S
C1585      C1586   1.399       .  A
C1585      C1590   1.401       .  A
C1585      H1595   1.083       .  S
C1586      C1591   1.470       .  S
C1586      C1587   1.406       .  A
C1587      C1588   1.393       .  A
C1587      S1592   1.805       .  S
C1588      C1589   1.411       .  A
C1588      H1593   1.084       .  S
C1589      C1590   1.419       .  A
C1590      S1594   1.807       .  S
C1591      C1596   1.406       .  A
C1591      C1600   1.403       .  A
S1592      H1608   1.405       .  S
S1594      H1605   1.407       .  S
C1596      C1597   1.397       .  A
C1596      S1601   1.807       .  S
C1597      C1598   1.406       .  A
C1597      H1602   1.084       .  S
C1598      C1599   1.408       .  A
C1599      C1600   1.396       .  A
C1599      S1603   1.803       .  S
C1600      H1604   1.084       .  S
S1601      H1606   1.407       .  S
S1603      H1607   1.406       .  S
C1609      C1610   1.409       .  A
C1609      C1614   1.410       .  A
C1609      H1619   1.083       .  S
C1610      C1615   1.503       .  S
C1610      C1611   1.415       .  A
C1611      C1612   1.406       .  A
C1611      S1616   1.804       .  S
C1612      C1613   1.407       .  A
C1612      H1617   1.084       .  S
C1613      C1614   1.413       .  A
C1614      S1618   1.802       .  S
C1615      C1620   1.417       .  A
C1615      C1624   1.402       .  A
S1616      H1632   1.407   1_655  S
S1618      H1629   1.405       .  S
C1620      C1621   1.415   1_655  A
C1620      S1625   1.805       .  S
C1621      C1622   1.405       .  A
C1621      H1626   1.083       .  S
C1622      C1623   1.417   1_554  A
C1623      C1624   1.402   1_456  A
C1623      S1627   1.803       .  S
C1624      H1628   1.084   1_554  S
S1625      H1630   1.407       .  S
S1627      H1631   1.404       .  S
C1633      C1634   1.408       .  A
C1633      C1638   1.408       .  A
C1633      H1643   1.084       .  S
C1634      C1639   1.511       .  S
C1634      C1635   1.420   1_554  A
C1635      C1636   1.412       .  A
C1635      S1640   1.804       .  S
C1636      C1637   1.407   1_556  A
C1636      H1641   1.083       .  S
C1637      C1638   1.414       .  A
C1638      S1642   1.801       .  S
C1639      C1644   1.413       .  A
C1639      C1648   1.412       .  A
S1640      H1656   1.406       .  S
S1642      H1653   1.406       .  S
C1644      C1645   1.409       .  A
C1644      S1649   1.807       .  S
C1645      C1646   1.409       .  A
C1645      H1650   1.083       .  S
C1646      C1647   1.414       .  A
C1647      C1648   1.414       .  A
C1647      S1651   1.801       .  S
C1648      H1652   1.083       .  S
S1649      H1654   1.407       .  S
S1651      H1655   1.403       .  S
