geometry optimzed in LAMMPS
_audit_creation_date              2020-11-30 
_audit_creation_method            'lammps2cif' 
_symmetry_space_group_name_H-M    'P1' 
_symmetry_Int_Tables_number       1 
_symmetry_cell_setting            triclinic 
loop_ 
_symmetry_equiv_pos_as_xyz 
  x,y,z 
_cell_length_a                    41.88261288492716 
_cell_length_b                    41.57575264248451 
_cell_length_c                    47.88368946184529 
_cell_angle_alpha                 88.31062210717182 
_cell_angle_beta                  90.43581534887245 
_cell_angle_gamma                 120.18451485947006 
loop_ 
_atom_site_label 
_atom_site_type_symbol 
_atom_site_fract_x 
_atom_site_fract_y 
_atom_site_fract_z 
_atom_site_charge 
Zr1        Zr  0.41315653  0.17898069  0.26646618     2.17510
O2          O  0.46462723  0.24177122  0.27269897    -0.51590
O3          O  0.37181678  0.20412085  0.26603168    -0.74790
O4          O  0.42578028  0.21152378  0.22004118    -0.81580
O5          O  0.40034187  0.13832506  0.34356930    -0.83320
O6          O  0.45526949  0.18719590  0.19890906    -0.78950
O7          O  0.42990595  0.19136984  0.31637491    -0.90580
O8          O  0.32210924  0.16387524  0.24092743    -0.76550
O9          O  0.38103465  0.14875031  0.22491970    -0.86040
O10         O  0.35259249  0.13339582  0.28391590    -0.85730
O11         O  0.44824548  0.15382831  0.24578580    -0.72480
O12         O  0.42165628  0.13724133  0.29702527    -0.84620
Zr13       Zr  0.36660228  0.03733649  0.24996920     2.26420
Zr14       Zr  0.41430940  0.12148510  0.20482206     2.06270
Zr15       Zr  0.36209185  0.08982278  0.31184833     2.10050
Zr16       Zr  0.32225214  0.10430821  0.24198468     1.78760
O17         O  0.37195673  0.05793966  0.35155237    -0.93420
O18         O  0.29626876  0.10930474  0.19754424    -0.41230
O19         O  0.36554325  0.09079345  0.26319413    -0.77860
O20         O  0.35237322  0.07492401  0.21873892    -0.96550
O21         O  0.42638887  0.08243742  0.23512253    -0.89850
O22         O  0.39575542  0.06279642  0.29289920    -0.92700
C23         C  0.34222643  0.19571407  0.25231275     1.01060
C24         C  0.42293231  0.17335254  0.34028005     1.13990
C25         C  0.44080546  0.20753329  0.19804481     1.04770
O26         O  0.38390765  0.12715371  0.16297945    -0.94850
O27         O  0.40766177  0.06901817  0.17867535    -0.90600
O28         O  0.37977640  0.01821726  0.20748327    -0.83740
C29         C  0.39417470  0.03409005  0.18409962     1.11410
O30         O  0.50713619  0.16733626  0.29725944    -0.96830
Zr31       Zr  0.45569779  0.11220077  0.27716848     1.88940
O32         O  0.40774885  0.01197047  0.25525894    -0.73470
O33         O  0.46564863  0.13521172  0.17359615    -0.52740
O34         O  0.51047703  0.13337553  0.24792431    -0.97410
O35         O  0.47496753  0.10111191  0.32292533    -0.54630
O36         O  0.46115687  0.05825792  0.27292546    -0.73990
C37         C  0.44102049  0.02550816  0.26400061     0.98350
O38         O  0.30624553  0.98812860  0.23483440    -0.62810
O39         O  0.31283331  0.09333604  0.33573365    -0.57610
O40         O  0.32750329  0.99666263  0.28678136    -0.94300
O41         O  0.30482765  0.02925526  0.30651187    -0.92720
O42         O  0.27541248  0.08182637  0.27862469    -0.93080
O43         O  0.26846182  0.04235172  0.23879669    -0.91860
C44         C  0.30134842  0.99833321  0.29878534     1.17200
H45         H  0.34032025  0.14381750  0.29415955     0.33140
H46         H  0.33835841  0.06110118  0.20285945     0.43990
H47         H  0.39689314  0.04462936  0.30524351     0.37520
H48         H  0.47299295  0.17381678  0.24157400     0.34000
H49         H  0.29473466  0.08897409  0.18630787     0.25790
H50         H  0.46516757  0.15189495  0.15862267     0.31720
H51         H  0.52378391  0.12154493  0.25644812     0.37630
H52         H  0.26024508  0.09329450  0.27383335     0.32090
H53         H  0.30475413  0.07417796  0.35096064     0.30970
H54         H  0.34683733  0.03832965  0.35742439     0.32650
H55         H  0.49485894  0.09552466  0.31902842     0.31620
H56         H  0.26854519  0.03507624  0.21932658     0.35620
H57         H  0.28781537  0.99316128  0.24330101     0.28350
H58         H  0.45547971  0.25829882  0.26568215     0.32580
H59         H  0.52828592  0.16294346  0.29755454     0.35430
H60         H  0.32550184  0.11730719  0.34543111     0.28040
H61         H  0.30542730  0.99367509  0.21470362     0.40920
H62         H  0.36096291  0.12563353  0.16984773     0.30970
H63         H  0.27025557  0.10147296  0.20199055     0.38590
H64         H  0.45415087  0.07722002  0.33005643     0.30440
H65         H  0.48828776  0.15097954  0.18434101     0.30500
H66         H  0.48330755  0.24481548  0.25871028     0.30770
Zr67       Zr  0.56012605  0.80805725  0.26436272     2.17510
O68         O  0.50553220  0.74817271  0.25523041    -0.51590
O69         O  0.60025199  0.78275903  0.27335664    -0.74790
O70         O  0.56143125  0.79352077  0.21479821    -0.81580
O71         O  0.50780184  0.79753431  0.32694827    -0.83320
O72         O  0.59687907  0.84889651  0.19098636    -0.78950
O73         O  0.53367570  0.76847048  0.30708707    -0.90580
O74         O  0.64904589  0.82426445  0.29839092    -0.76550
O75         O  0.62208196  0.85588773  0.25272959    -0.86040
O76         O  0.58792057  0.83762986  0.30718340    -0.85730
O77         O  0.55628349  0.85177959  0.23227860    -0.72480
O78         O  0.52245943  0.83158349  0.28219416    -0.84620
Zr79       Zr  0.60519706  0.95010345  0.27971755     2.26420
Zr80       Zr  0.61877265  0.90090407  0.22166277     2.06270
Zr81       Zr  0.55169637  0.86290678  0.32428009     2.10050
Zr82       Zr  0.64892819  0.88343283  0.29586006     1.78760
O83         O  0.49638942  0.85194859  0.34896632    -0.93420
O84         O  0.70441560  0.89652351  0.27013767    -0.41230
O85         O  0.61325746  0.91004222  0.31255648    -0.77860
O86         O  0.64521335  0.92786120  0.26515204    -0.96550
O87         O  0.57886340  0.92280301  0.23677816    -0.89850
O88         O  0.54439477  0.90288390  0.29170387    -0.92700
C89         C  0.62906627  0.79181238  0.28809499     1.01060
C90         C  0.51841795  0.77383429  0.32838915     1.13990
C91         C  0.57578714  0.81334806  0.19217542     1.04770
O92         O  0.67333647  0.90384937  0.20131461    -0.94850
O93         O  0.66689525  0.96818819  0.21641485    -0.90600
O94         O  0.64893532  0.99625859  0.24736354    -0.83740
C95         C  0.67087621  0.99745784  0.22845309     1.11410
O96         O  0.46878313  0.81594664  0.22986461    -0.96830
Zr97       Zr  0.51808801  0.87333919  0.24912223     1.88940
O98         O  0.56258178  0.97278685  0.26913499    -0.73470
O99         O  0.60496722  0.92254456  0.17789258    -0.52740
O100        O  0.50810070  0.88337124  0.20019353    -0.97410
O101        O  0.45917439  0.85470108  0.27194189    -0.54630
O102        O  0.51180790  0.92710136  0.24812703    -0.73990
C103        C  0.53062756  0.95954402  0.25785185     0.98350
O104        O  0.64782889  0.01016063  0.29980918    -0.62810
O105        O  0.57780507  0.85493526  0.36787084    -0.57610
O106        O  0.60001864  0.96573898  0.32581687    -0.94300
O107        O  0.56233354  0.91460212  0.35262058    -0.92720
O108        O  0.65811620  0.87506852  0.34527917    -0.93080
O109        O  0.70355895  0.93733991  0.31412488    -0.91860
C110        C  0.58344562  0.94969524  0.34856803     1.17200
H111        H  0.58968746  0.82113148  0.32087951     0.33140
H112        H  0.67024799  0.94816958  0.26343640     0.43990
H113        H  0.53033391  0.91266974  0.30020851     0.37520
H114        H  0.54287678  0.84005287  0.21566669     0.34000
H115        H  0.71653277  0.88611223  0.28219831     0.25790
H116        H  0.62048024  0.91979597  0.16374061     0.31720
H117        H  0.48774578  0.88896222  0.20039595     0.37630
H118        H  0.67401873  0.86374162  0.34566210     0.32090
H119        H  0.55865105  0.84910398  0.38223687     0.30970
H120        H  0.47763889  0.84547211  0.33419611     0.32650
H121        H  0.44613761  0.86290614  0.25880241     0.31620
H122        H  0.72005618  0.92810843  0.32071044     0.35620
H123        H  0.67310644  0.01503672  0.29588346     0.28350
H124        H  0.51323530  0.73594293  0.24154212     0.32580
H125        H  0.45048851  0.82215690  0.22213199     0.35430
H126        H  0.57885077  0.83182724  0.36635828     0.28040
H127        H  0.64538356  0.02931857  0.28878650     0.40920
H128        H  0.66971882  0.87857500  0.20441031     0.30970
H129        H  0.69532486  0.87986280  0.25405037     0.38590
H130        H  0.46539246  0.87134189  0.28793659     0.30440
H131        H  0.57938450  0.90314475  0.17348554     0.30500
H132        H  0.48871258  0.75441315  0.24491744     0.30770
Zr133      Zr  0.41674262  0.24095012  0.01293536     2.17510
O134        O  0.47335017  0.23882296  0.01930825    -0.51590
O135        O  0.37722323  0.17571368  0.00516678    -0.74790
O136        O  0.41769464  0.22100330  0.06204602    -0.81580
O137        O  0.45728579  0.28250231  0.44127973    -0.83320
O138        O  0.38135996  0.23702169  0.08652007    -0.78950
O139        O  0.43671314  0.22908431  0.46659511    -0.90580
O140        O  0.32328735  0.16574856  0.48663238    -0.76550
O141        O  0.35583502  0.22524543  0.02842094    -0.86040
O142        O  0.38500809  0.24398294  0.47248671    -0.85730
O143        O  0.42177382  0.28624310  0.04607951    -0.72480
O144        O  0.45329386  0.30394464  0.49581565    -0.84620
Zr145      Zr  0.37102193  0.33821087  0.50155537     2.26420
Zr146      Zr  0.36022443  0.27226852  0.05931415     2.06270
Zr147      Zr  0.42000823  0.30711959  0.45603274     2.10050
Zr148      Zr  0.32493282  0.22653145  0.48728199     1.78760
O149        O  0.47177219  0.34948255  0.42623092    -0.93420
O150        O  0.27265142  0.18755570  0.01809231    -0.41230
O151        O  0.35904775  0.29048001  0.46931356    -0.77860
O152        O  0.33096542  0.27441684  0.01737108    -0.96550
O153        O  0.39946069  0.33531903  0.04363502    -0.89850
O154        O  0.43120394  0.35317436  0.48845111    -0.92700
C155        C  0.34548410  0.15423004  0.99472809     1.01060
C156        C  0.44890393  0.24864268  0.44339901     1.13990
C157        C  0.40283930  0.22339793  0.08493678     1.04770
O158        O  0.30574180  0.22119296  0.08204701    -0.94850
O159        O  0.31427210  0.29347483  0.06703860    -0.90600
O160        O  0.32458390  0.33476900  0.03148229    -0.83740
C161        C  0.30707533  0.31651706  0.05335225     1.11410
O162        O  0.50789344  0.33921887  0.05113741    -0.96830
Zr163      Zr  0.45967678  0.34805002  0.02973068     1.88940
O164        O  0.41610208  0.40416298  0.50815274    -0.73470
O165        O  0.37961476  0.30432686  0.10332602    -0.52740
O166        O  0.47008551  0.36901658  0.07765975    -0.97410
O167        O  0.51864801  0.38580408  0.50550891    -0.54630
O168        O  0.46888208  0.40974749  0.02625558    -0.73990
C169        C  0.44944804  0.42334646  0.51690166     0.98350
O170        O  0.33814298  0.37195196  0.49211964    -0.62810
O171        O  0.37142263  0.27574465  0.42185483    -0.57610
O172        O  0.36337771  0.34397211  0.45277247    -0.94300
O173        O  0.41649442  0.35677441  0.43247472    -0.92720
O174        O  0.30642967  0.20257828  0.44052184    -0.93080
O175        O  0.27073209  0.22665612  0.46861710    -0.91860
C176        C  0.38784600  0.35991328  0.43374975     1.17200
H177        H  0.38134830  0.22659654  0.45819258     0.33140
H178        H  0.30594310  0.26886490  0.02029120     0.43990
H179        H  0.44558486  0.37721902  0.47924163     0.37520
H180        H  0.43556510  0.28632480  0.06228397     0.34000
H181        H  0.25392589  0.16867223  0.00580177     0.25790
H182        H  0.36441484  0.28514204  0.11770610     0.31720
H183        H  0.49112348  0.39489610  0.07645152     0.37630
H184        H  0.28649613  0.17636030  0.44350035     0.32090
H185        H  0.37867097  0.29270731  0.40518735     0.30970
H186        H  0.49160454  0.36502247  0.43938472     0.32650
H187        H  0.53212715  0.40845926  0.51664075     0.31620
H188        H  0.27762435  0.25320843  0.46802382     0.35620
H189        H  0.35424830  0.39291827  0.47921276     0.28350
H190        H  0.46513878  0.21330517  0.02660629     0.32580
H191        H  0.52701545  0.36407628  0.05737523     0.35430
H192        H  0.37250827  0.25369967  0.41632631     0.28040
H193        H  0.31649030  0.35524453  0.48077522     0.40920
H194        H  0.30714367  0.19865507  0.07825448     0.30970
H195        H  0.28105795  0.17341853  0.03001367     0.38590
H196        H  0.51245150  0.39456390  0.48796026     0.30440
H197        H  0.40492751  0.30871751  0.10622226     0.30500
H198        H  0.48592007  0.25524504  0.03512864     0.30770
Zr199      Zr  0.58099369  0.76808635  0.00878529     2.17510
O200        O  0.53150027  0.78208785  0.00234274    -0.51590
O201        O  0.62417940  0.83398431  0.01057634    -0.74790
O202        O  0.57423678  0.78777387  0.05621676    -0.81580
O203        O  0.59673639  0.74669979  0.43348426    -0.83320
O204        O  0.53856595  0.73295960  0.07756638    -0.78950
O205        O  0.56371169  0.76618918  0.45838425    -0.90580
O206        O  0.67168989  0.83701144  0.03608199    -0.76550
O207        O  0.61031733  0.76230176  0.04986310    -0.86040
O208        O  0.64073072  0.78006539  0.99318012    -0.85730
O209        O  0.53995950  0.70659436  0.02868545    -0.72480
O210        O  0.57440479  0.72007096  0.47953163    -0.84620
Zr211      Zr  0.61779493  0.66456201  0.02488375     2.26420
Zr212      Zr  0.57152573  0.70095300  0.06934270     2.06270
Zr213      Zr  0.63273134  0.73014437  0.46431784     2.10050
Zr214      Zr  0.66976621  0.77652729  0.03501012     1.78760
O215        O  0.62700568  0.69612292  0.42230472    -0.93420
O216        O  0.69747361  0.80232271  0.07966982    -0.41230
O217        O  0.65980192  0.72619062  0.00676613    -0.77860
O218        O  0.63210532  0.71431267  0.05625576    -0.96550
O219        O  0.55869159  0.65369293  0.03760337    -0.89850
O220        O  0.59010909  0.66871907  0.98240452    -0.92700
C221        C  0.65311503  0.85152639  0.02555247     1.01060
C222        C  0.57226023  0.75657792  0.43519393     1.13990
C223        C  0.55689094  0.76809311  0.07815593     1.04770
O224        O  0.60787265  0.72691618  0.11111063    -0.94850
O225        O  0.56277156  0.64269398  0.08974681    -0.90600
O226        O  0.60456016  0.63192687  0.06898822    -0.83740
C227        C  0.58071829  0.62527686  0.08800855     1.11410
O228        O  0.49104941  0.67614250  0.96954571    -0.96830
Zr229      Zr  0.53120615  0.66004493  0.99614707     1.88940
O230        O  0.57092614  0.59941648  0.01794688    -0.73470
O231        O  0.52178104  0.66866429  0.10371203    -0.52740
O232        O  0.47282679  0.63054683  0.02186858    -0.97410
O233        O  0.51211412  0.62976704  0.45134965    -0.54630
O234        O  0.51771766  0.59749580  0.00467340    -0.73990
C235        C  0.53629926  0.58208836  0.01209206     0.98350
O236        O  0.66830573  0.65589129  0.04180093    -0.62810
O237        O  0.68149351  0.78513878  0.44001461    -0.57610
O238        O  0.64828957  0.65612292  0.98607523    -0.94300
O239        O  0.68187035  0.71335146  0.46750394    -0.92720
O240        O  0.71968657  0.81491203  0.00221304    -0.93080
O241        O  0.72468243  0.77213229  0.04485406    -0.91860
C242        C  0.67871148  0.68214519  0.47597679     1.17200
H243        H  0.65451710  0.80381198  0.48338224     0.33140
H244        H  0.64466524  0.71165519  0.07238760     0.43990
H245        H  0.58721342  0.64992150  0.46961595     0.37520
H246        H  0.51620913  0.70376890  0.03314719     0.34000
H247        H  0.69926081  0.78234899  0.09005017     0.25790
H248        H  0.52648851  0.68690495  0.11833322     0.31720
H249        H  0.45723998  0.60671605  0.01249533     0.37630
H250        H  0.73362307  0.83936108  0.01110291     0.32090
H251        H  0.70172483  0.77966336  0.43761610     0.30970
H252        H  0.64866751  0.71341509  0.41066411     0.32650
H253        H  0.48714369  0.60807946  0.45490484     0.31620
H254        H  0.71507053  0.74559473  0.05002993     0.35620
H255        H  0.69086484  0.67714180  0.03348072     0.28350
H256        H  0.54179742  0.80762659  0.00922675     0.32580
H257        H  0.46599583  0.65397442  0.97107418     0.35430
H258        H  0.67196148  0.78434447  0.42091018     0.28040
H259        H  0.67091648  0.66138705  0.06193652     0.40920
H260        H  0.60231848  0.70503338  0.12327909     0.30970
H261        H  0.72330585  0.82177471  0.07536738     0.38590
H262        H  0.52783860  0.61867737  0.44825679     0.30440
H263        H  0.49903087  0.66466903  0.09426034     0.30500
H264        H  0.51260325  0.76600407  0.01647395     0.30770
Zr265      Zr  0.23112474  0.81146482  0.00856247     2.17510
O266        O  0.22153911  0.74969477  0.00025157    -0.51590
O267        O  0.16602297  0.78807259  0.01540902    -0.74790
O268        O  0.21052765  0.78162760  0.05603639    -0.81580
O269        O  0.24972174  0.85587040  0.43381753    -0.83320
O270        O  0.26304333  0.79572368  0.07735276    -0.78950
O271        O  0.22383946  0.80004410  0.45796573    -0.90580
O272        O  0.16469667  0.82687874  0.04712722    -0.76550
O273        O  0.23800728  0.84147513  0.05103958    -0.86040
O274        O  0.21870274  0.86091943  0.99735919    -0.85730
O275        O  0.29271048  0.83017117  0.02447863    -0.72480
O276        O  0.27802037  0.85599361  0.47768955    -0.84620
Zr277      Zr  0.33249204  0.95089724  0.02651231     2.26420
Zr278      Zr  0.29882522  0.86127172  0.06734776     2.06270
Zr279      Zr  0.26719007  0.90602334  0.46687693     2.10050
Zr280      Zr  0.22265017  0.88755246  0.04155550     1.78760
O281        O  0.29880918  0.93613757  0.42313168    -0.93420
O282        O  0.20566299  0.88392617  0.09057738    -0.41230
O283        O  0.27092131  0.93194588  0.01121601    -0.77860
O284        O  0.28481025  0.90996733  0.05893096    -0.96550
O285        O  0.34485842  0.90186692  0.03506368    -0.89850
O286        O  0.32848371  0.92460031  0.98228985    -0.92700
C287        C  0.14977121  0.79546955  0.03470335     1.01060
C288        C  0.23418787  0.82003027  0.43499355     1.13990
C289        C  0.22824106  0.78125637  0.07813375     1.04770
O290        O  0.27485160  0.85950832  0.11389794    -0.94850
O291        O  0.34838780  0.91044121  0.09266411    -0.90600
O292        O  0.36478858  0.96550901  0.07022382    -0.83740
C293        C  0.36626429  0.94608344  0.09088145     1.11410
O294        O  0.32534659  0.82105312  0.96272744    -0.96830
Zr295      Zr  0.33864383  0.87350549  0.99180248     1.88940
O296        O  0.39696554  0.97272658  0.01594999    -0.73470
O297        O  0.34016789  0.84000827  0.08464169    -0.52740
O298        O  0.36953852  0.84294528  0.01368286    -0.97410
O299        O  0.36786989  0.89137036  0.44570127    -0.54630
O300        O  0.40045129  0.92363987  0.99988867    -0.73990
C301        C  0.41506753  0.95717325  0.00797103     0.98350
O302        O  0.33706651  0.00563896  0.04796798    -0.62810
O303        O  0.21186352  0.90303764  0.44742173    -0.57610
O304        O  0.34104192  0.99632413  0.99063831    -0.94300
O305        O  0.28553406  0.97309307  0.47078694    -0.92720
O306        O  0.17958161  0.89989729  0.01551928    -0.93080
O307        O  0.22313660  0.94234423  0.05868463    -0.91860
C308        C  0.31543639  0.00092869  0.48014145     1.17200
H309        H  0.19473089  0.85174364  0.48896744     0.33140
H310        H  0.28757275  0.92275674  0.07609256     0.43990
H311        H  0.34674008  0.94259301  0.46937930     0.37520
H312        H  0.29545909  0.80862318  0.02754105     0.34000
H313        H  0.17832051  0.87078854  0.09087002     0.25790
H314        H  0.32964051  0.82762236  0.10298369     0.31720
H315        H  0.39371003  0.85396129  0.00395622     0.37630
H316        H  0.15615086  0.88637336  0.02627345     0.32090
H317        H  0.22076123  0.92770444  0.43814042     0.30970
H318        H  0.27879913  0.93214628  0.41006357     0.32650
H319        H  0.39008705  0.88883054  0.44747253     0.31620
H320        H  0.24963270  0.96081676  0.06102243     0.35620
H321        H  0.31648750  0.00790100  0.03980011     0.28350
H322        H  0.19776438  0.73672632  0.99024053     0.32580
H323        H  0.34825014  0.81964949  0.96245933     0.35430
H324        H  0.20472606  0.88560622  0.43185826     0.28040
H325        H  0.32928456  0.99822345  0.06769646     0.40920
H326        H  0.28747495  0.85005026  0.12632135     0.30970
H327        H  0.21191358  0.86597653  0.09935226     0.38590
H328        H  0.37783975  0.91852081  0.44364852     0.30440
H329        H  0.33603657  0.81955052  0.07236262     0.30500
H330        H  0.21618315  0.73709629  0.01889871     0.30770
Zr331      Zr  0.75742282  0.18800653  0.01846983     2.17510
O332        O  0.76404242  0.24718132  0.03175876    -0.51590
O333        O  0.82219768  0.21059373  0.00953384    -0.74790
O334        O  0.77289310  0.19809821  0.06885658    -0.81580
O335        O  0.72100907  0.20642718  0.45610271    -0.83320
O336        O  0.75146388  0.14124367  0.09070754    -0.78950
O337        O  0.77549768  0.23075486  0.47678809    -0.90580
O338        O  0.82539954  0.17083956  0.47974860    -0.76550
O339        O  0.76910481  0.13778450  0.02736645    -0.86040
O340        O  0.75337216  0.16023092  0.47436821    -0.85730
O341        O  0.70856083  0.14344065  0.04888804    -0.72480
O342        O  0.69629433  0.16811596  0.50072088    -0.84620
Zr343      Zr  0.65620465  0.04818030  0.49771028     2.26420
Zr344      Zr  0.71997586  0.09260116  0.05723161     2.06270
Zr345      Zr  0.69276380  0.13968511  0.45701791     2.10050
Zr346      Zr  0.76625887  0.11235731  0.48280075     1.78760
O347        O  0.65332337  0.15987032  0.43430939    -0.93420
O348        O  0.80848670  0.09703708  0.00703003    -0.41230
O349        O  0.70437420  0.08944724  0.46550775    -0.77860
O350        O  0.71815991  0.06817024  0.01244685    -0.96550
O351        O  0.65840289  0.07309370  0.04196732    -0.89850
O352        O  0.64494002  0.09794831  0.48809317    -0.92700
C353        C  0.83955849  0.20225025  0.99185769     1.01060
C354        C  0.75593494  0.22688554  0.45484420     1.13990
C355        C  0.76670145  0.17687325  0.09094659     1.04770
O356        O  0.76936225  0.08584982  0.07847757    -0.94850
O357        O  0.70111674  0.02572711  0.05789698    -0.90600
O358        O  0.65437635  0.99858679  0.02662016    -0.83740
C359        C  0.67651440  0.99731800  0.04463304     1.11410
O360        O  0.65677590  0.17776699  0.05760333    -0.96830
Zr361      Zr  0.64873129  0.12437124  0.03193250     1.88940
O362        O  0.59179936  0.02481550  0.51034439    -0.73470
O363        O  0.68224603  0.06758345  0.09939374    -0.52740
O364        O  0.62425970  0.10533497  0.07931086    -0.97410
O365        O  0.61429717  0.15173965  0.51091776    -0.54630
O366        O  0.58713738  0.07335836  0.02590520    -0.73990
C367        C  0.57309828  0.03973603  0.51830811     0.98350
O368        O  0.64310124  0.98879480  0.47894417    -0.62810
O369        O  0.72236517  0.14543964  0.41205834    -0.57610
O370        O  0.62812157  0.03707610  0.45281753    -0.94300
O371        O  0.64866848  0.09144688  0.42788092    -0.92720
O372        O  0.78276965  0.12057942  0.43337953    -0.93080
O373        O  0.76543416  0.05851782  0.46324922    -0.91860
C374        C  0.62986802  0.05602826  0.43089737     1.17200
H375        H  0.77174636  0.17606696  0.46075152     0.33140
H376        H  0.72291323  0.04779021  0.01265384     0.43990
H377        H  0.62129008  0.08978799  0.47943978     0.37520
H378        H  0.70758733  0.15431299  0.06610647     0.34000
H379        H  0.82864480  0.10363447  0.99337680     0.25790
H380        H  0.69915602  0.06677689  0.11358230     0.31720
H381        H  0.59869642  0.10079627  0.07833723     0.37630
H382        H  0.80960006  0.12956326  0.43296520     0.32090
H383        H  0.71452783  0.15976619  0.39984011     0.30970
H384        H  0.62850225  0.14347968  0.44255799     0.32650
H385        H  0.59094724  0.14075513  0.52177549     0.31620
H386        H  0.73895842  0.04061196  0.46010309     0.35620
H387        H  0.61650837  0.97539288  0.47425877     0.28350
H388        H  0.78821216  0.26047351  0.04121637     0.32580
H389        H  0.63184681  0.17112467  0.06433337     0.35430
H390        H  0.74913627  0.16209018  0.41475955     0.28040
H391        H  0.65629965  0.99496237  0.46075379     0.40920
H392        H  0.79243596  0.10774639  0.07140527     0.30970
H393        H  0.82006132  0.11593391  0.02155750     0.38590
H394        H  0.60680844  0.14042224  0.49237656     0.30440
H395        H  0.67795453  0.08771548  0.10537224     0.30500
H396        H  0.74551520  0.24060634  0.04681529     0.30770
Zr397      Zr  0.80396218  0.22991652  0.26985856     2.17510
O398        O  0.74308262  0.22010571  0.28144000    -0.51590
O399        O  0.78021220  0.16424216  0.26139669    -0.74790
O400        O  0.77232157  0.21143716  0.22407480    -0.81580
O401        O  0.84969911  0.24727895  0.34252409    -0.83320
O402        O  0.78931371  0.26584320  0.20239228    -0.78950
O403        O  0.79339929  0.22311663  0.32176947    -0.90580
O404        O  0.82062119  0.16410256  0.23005989    -0.76550
O405        O  0.83427762  0.23863752  0.22621608    -0.86040
O406        O  0.85301061  0.21700121  0.27891576    -0.85730
O407        O  0.82332713  0.29245070  0.25236436    -0.72480
O408        O  0.84834924  0.27682707  0.29896908    -0.84620
Zr409      Zr  0.94271254  0.33338522  0.24804499     2.26420
Zr410      Zr  0.85496774  0.30043024  0.20851647     2.06270
Zr411      Zr  0.89783356  0.26531312  0.30782026     2.10050
Zr412      Zr  0.88009060  0.22290473  0.23406458     1.78760
O413        O  0.92501053  0.29256729  0.35235307    -0.93420
O414        O  0.87491678  0.20682695  0.18507319    -0.41230
O415        O  0.92447570  0.27084235  0.26313640    -0.77860
O416        O  0.90305916  0.28610267  0.21637162    -0.96550
O417        O  0.89434366  0.34617037  0.24000445    -0.89850
O418        O  0.91587644  0.32755708  0.29260618    -0.92700
C419        C  0.78886575  0.14845780  0.24250471     1.01060
C420        C  0.81448300  0.23294727  0.34369723     1.13990
C421        C  0.77324839  0.23059538  0.20208640     1.04770
O422        O  0.84629161  0.27766234  0.16119518    -0.94850
O423        O  0.90627791  0.34476905  0.17859250    -0.90600
O424        O  0.95838810  0.36651849  0.20407695    -0.83740
C425        C  0.94133355  0.36566409  0.18163457     1.11410
O426        O  0.81275058  0.32325058  0.31405067    -0.96830
Zr427      Zr  0.86547429  0.33816909  0.28398189     1.88940
O428        O  0.96326918  0.39835502  0.25673281    -0.73470
O429        O  0.83897474  0.34737950  0.19468364    -0.52740
O430        O  0.83461363  0.36935153  0.26310446    -0.97410
O431        O  0.88278751  0.36647462  0.32961691    -0.54630
O432        O  0.91495748  0.40108037  0.27486221    -0.73990
C433        C  0.94803920  0.41650774  0.26525503     0.98350
O434        O  0.99940969  0.34083251  0.22760441    -0.62810
O435        O  0.89614869  0.20835236  0.32407142    -0.57610
O436        O  0.98738873  0.34389763  0.28348911    -0.94300
O437        O  0.96496095  0.28823808  0.30552622    -0.92720
O438        O  0.89369743  0.17980350  0.25969962    -0.93080
O439        O  0.93406544  0.22389567  0.21449827    -0.91860
C440        C  0.99224087  0.31961379  0.29674239     1.17200
H441        H  0.84382742  0.19252706  0.28736316     0.33140
H442        H  0.91622030  0.28927640  0.19910178     0.43990
H443        H  0.93331351  0.34546093  0.30533222     0.37520
H444        H  0.80202375  0.29540642  0.24986368     0.34000
H445        H  0.86598263  0.17978526  0.18532316     0.25790
H446        H  0.82817748  0.34014521  0.17585440     0.31720
H447        H  0.84533001  0.39341752  0.27258247     0.37630
H448        H  0.87993496  0.15613562  0.24975303     0.32090
H449        H  0.91484578  0.21618297  0.33900732     0.30970
H450        H  0.93055506  0.27444135  0.36174896     0.32650
H451        H  0.87966545  0.38853922  0.32797486     0.31620
H452        H  0.95343526  0.25052981  0.21396281     0.35620
H453        H  0.00374771  0.32222810  0.23761049     0.28350
H454        H  0.72962487  0.19477652  0.29010189     0.32580
H455        H  0.81168647  0.34645396  0.31497981     0.35430
H456        H  0.87217511  0.19368357  0.33396182     0.28040
H457        H  0.99264297  0.33105330  0.20854053     0.40920
H458        H  0.86601602  0.27153882  0.15846143     0.30970
H459        H  0.85370902  0.20893140  0.17812914     0.38590
H460        H  0.90982047  0.37705563  0.33086026     0.30440
H461        H  0.81780267  0.34219193  0.20684193     0.30500
H462        H  0.73084041  0.21786245  0.26325402     0.30770
Zr463      Zr  0.17391953  0.76593870  0.26215006     2.17510
O464        O  0.23547686  0.77714555  0.25111659    -0.51590
O465        O  0.19483544  0.83094645  0.27181330    -0.74790
O466        O  0.18894679  0.78254293  0.21138208    -0.81580
O467        O  0.18323570  0.71949692  0.32412586    -0.83320
O468        O  0.13485690  0.76253796  0.18771075    -0.78950
O469        O  0.21174248  0.77684700  0.30540324    -0.90580
O470        O  0.14911040  0.83373777  0.29496382    -0.76550
O471        O  0.12459243  0.77735551  0.25015089    -0.86040
O472        O  0.14147202  0.75931951  0.30500319    -0.85730
O473        O  0.13306881  0.71790588  0.23085171    -0.72480
O474        O  0.15180573  0.70332087  0.28031775    -0.84620
Zr475      Zr  0.03324498  0.66110598  0.27821170     2.26420
Zr476      Zr  0.08294081  0.72908346  0.21945104     2.06270
Zr477      Zr  0.11785435  0.69659295  0.32258008     2.10050
Zr478      Zr  0.09384931  0.77175433  0.29316114     1.78760
O479        O  0.13682732  0.66188200  0.35378338    -0.93420
O480        O  0.07675493  0.81119367  0.26595945    -0.41230
O481        O  0.06946101  0.70846780  0.31082746    -0.77860
O482        O  0.05278461  0.72399786  0.26282478    -0.96550
O483        O  0.06374156  0.66692696  0.23540843    -0.89850
O484        O  0.08216329  0.65051563  0.29015002    -0.92700
C485        C  0.18242203  0.84850885  0.28569033     1.01060
C486        C  0.20623400  0.75402166  0.32619058     1.13990
C487        C  0.17015643  0.77741490  0.18854464     1.04770
O488        O  0.07673834  0.77999599  0.19906095    -0.94850
O489        O  0.01498594  0.70436168  0.21637919    -0.90600
O490        O  0.99480235  0.64895461  0.23777337    -0.83740
C491        C  0.98831732  0.67279178  0.22571064     1.11410
O492        O  0.16964183  0.66702131  0.22496696    -0.96830
Zr493      Zr  0.11334541  0.65685018  0.24788850     1.88940
O494        O  0.01192778  0.59621069  0.26867931    -0.73470
O495        O  0.06442753  0.69612264  0.17576666    -0.52740
O496        O  0.10112106  0.63486414  0.20024268    -0.97410
O497        O  0.13877209  0.62219587  0.27178941    -0.54630
O498        O  0.06133725  0.59409670  0.25207558    -0.73990
C499        C  0.02752917  0.57838522  0.26016242     0.98350
O500        O  0.97847979  0.65769804  0.29866387    -0.62810
O501        O  0.11036805  0.72794156  0.36224909    -0.57610
O502        O  0.01540263  0.62323911  0.31982038    -0.94300
O503        O  0.06659589  0.64250432  0.34623119    -0.92720
O504        O  0.09892924  0.78978009  0.34165260    -0.93080
O505        O  0.03866868  0.76872979  0.31231498    -0.91860
C506        C  0.03199786  0.62090860  0.34160439     1.17200
H507        H  0.15673076  0.77719075  0.31863735     0.33140
H508        H  0.03175123  0.72746744  0.26103819     0.43990
H509        H  0.07407884  0.62611483  0.29829689     0.37520
H510        H  0.14570747  0.71762995  0.21424567     0.34000
H511        H  0.08034433  0.83094827  0.27881766     0.25790
H512        H  0.06731891  0.71519299  0.16155372     0.31720
H513        H  0.09700320  0.60923594  0.20164441     0.37630
H514        H  0.10456637  0.81595076  0.34071289     0.32090
H515        H  0.10935531  0.71308536  0.37908669     0.30970
H516        H  0.12763760  0.66263749  0.37259265     0.32650
H517        H  0.12604311  0.59728709  0.26349622     0.31620
H518        H  0.02124148  0.74184678  0.31567256     0.35620
H519        H  0.98472556  0.66402277  0.31849244     0.28350
H520        H  0.24870127  0.80244527  0.24238653     0.32580
H521        H  0.16469582  0.64208157  0.21968240     0.35430
H522        H  0.13335907  0.75221424  0.36381350     0.28040
H523        H  0.97786749  0.67948239  0.29041154     0.40920
H524        H  0.10060386  0.80270613  0.20273574     0.30970
H525        H  0.09675017  0.82420209  0.25188089     0.38590
H526        H  0.12888746  0.61785412  0.29110252     0.30440
H527        H  0.08438583  0.69082127  0.17141881     0.30500
H528        H  0.23186195  0.76018592  0.23577142     0.30770
Zr529      Zr  0.81021979  0.58273753  0.01934523     2.17510
O530        O  0.74907214  0.53058767  0.03093990    -0.51590
O531        O  0.79251160  0.62977778  0.01758945    -0.74790
O532        O  0.79827726  0.58190142  0.07005492    -0.81580
O533        O  0.79276957  0.53294579  0.45832939    -0.83320
O534        O  0.85401316  0.61176718  0.09178617    -0.78950
O535        O  0.77026828  0.56525242  0.47715583    -0.90580
O536        O  0.83230028  0.67537356  0.48757276    -0.76550
O537        O  0.86159192  0.64225946  0.03042897    -0.86040
O538        O  0.84015890  0.61201812  0.47570608    -0.85730
O539        O  0.85128500  0.57115326  0.04801954    -0.72480
O540        O  0.82827216  0.54195469  0.49857733    -0.84620
Zr541      Zr  0.94759011  0.61790938  0.49484942     2.26420
Zr542      Zr  0.90365125  0.63122013  0.05805469     2.06270
Zr543      Zr  0.85864292  0.57195152  0.45513064     2.10050
Zr544      Zr  0.88901962  0.67098735  0.48662802     1.78760
O545        O  0.83156638  0.51799864  0.42549613    -0.93420
O546        O  0.90808741  0.72431520  0.01613927    -0.41230
O547        O  0.90946485  0.63214384  0.46504279    -0.77860
O548        O  0.93052786  0.65993121  0.01398353    -0.96550
O549        O  0.92096873  0.58972375  0.03879864    -0.89850
O550        O  0.89657516  0.55875602  0.48471995    -0.92700
C551        C  0.80144504  0.65807026  0.00122760     1.01060
C552        C  0.77350246  0.54855098  0.45602835     1.13990
C553        C  0.81853681  0.59329039  0.09220282     1.04770
O554        O  0.91422007  0.68739051  0.08070197    -0.94850
O555        O  0.97135651  0.67350765  0.06100637    -0.90600
O556        O  0.99604676  0.65603158  0.02658295    -0.83740
C557        C  0.99910299  0.67659220  0.04704492     1.11410
O558        O  0.81249238  0.48109716  0.05005358    -0.96830
Zr559      Zr  0.86865001  0.53094119  0.02799473     1.88940
O560        O  0.96851198  0.57350295  0.50473895    -0.73470
O561        O  0.92290145  0.61008028  0.09941415    -0.52740
O562        O  0.87980395  0.51644674  0.07548156    -0.97410
O563        O  0.84395024  0.47345183  0.50238407    -0.54630
O564        O  0.92039233  0.52100175  0.02354542    -0.73990
C565        C  0.95365593  0.53974850  0.51430477     0.98350
O566        O  0.00282017  0.66730073  0.47128338    -0.62810
O567        O  0.85758342  0.60553632  0.41272545    -0.57610
O568        O  0.95941866  0.59854570  0.45140362    -0.94300
O569        O  0.90512176  0.56690735  0.42868457    -0.92720
O570        O  0.88281099  0.69169991  0.43984242    -0.93080
O571        O  0.94394204  0.72451911  0.46633499    -0.91860
C572        C  0.93986411  0.57918756  0.43108879     1.17200
H573        H  0.82538356  0.61716394  0.46299237     0.33140
H574        H  0.95207516  0.68413668  0.01589872     0.43990
H575        H  0.90350018  0.54243576  0.47611810     0.37520
H576        H  0.83923114  0.55711436  0.06484084     0.34000
H577        H  0.90746912  0.74344886  0.00373931     0.25790
H578        H  0.92495849  0.62721878  0.11415094     0.31720
H579        H  0.88446736  0.49549027  0.07368409     0.37630
H580        H  0.87700254  0.71169986  0.44277810     0.32090
H581        H  0.83654341  0.58720392  0.40170248     0.30970
H582        H  0.82807421  0.52709360  0.40704910     0.32650
H583        H  0.86523385  0.47521579  0.49213365     0.31620
H584        H  0.96414477  0.72972625  0.47957709     0.35620
H585        H  0.99491934  0.66913594  0.45205521     0.28350
H586        H  0.73607993  0.54182908  0.04015669     0.32580
H587        H  0.81743405  0.46049572  0.05399861     0.35430
H588        H  0.85005935  0.62336552  0.41859916     0.28040
H589        H  0.00734476  0.69066474  0.47976152     0.40920
H590        H  0.89153753  0.68861777  0.07717155     0.30970
H591        H  0.88718728  0.71665852  0.02930078     0.38590
H592        H  0.82847930  0.47578495  0.48762791     0.30440
H593        H  0.90104541  0.58591285  0.10493812     0.30500
H594        H  0.75323738  0.51634356  0.04602758     0.30770
Zr595      Zr  0.17889192  0.42113546  0.00382084     2.17510
O596        O  0.23941557  0.47376366  0.99141158    -0.51590
O597        O  0.20405921  0.38049618  0.01530265    -0.74790
O598        O  0.21047562  0.43602804  0.04994853    -0.81580
O599        O  0.13342862  0.39173606  0.43117698    -0.83320
O600        O  0.19098896  0.47096823  0.06967318    -0.78950
O601        O  0.18960471  0.42535865  0.45165932    -0.90580
O602        O  0.16308286  0.33753859  0.04643987    -0.76550
O603        O  0.14827667  0.39827526  0.04768585    -0.86040
O604        O  0.13089062  0.35813330  0.99654608    -0.85730
O605        O  0.15742397  0.46244680  0.01865975    -0.72480
O606        O  0.13411558  0.42234408  0.47332171    -0.84620
Zr607      Zr  0.03849270  0.37988088  0.02405406     2.26420
Zr608      Zr  0.12563564  0.43751702  0.06275658     2.06270
Zr609      Zr  0.08569099  0.36019596  0.46628511     2.10050
Zr610      Zr  0.10354805  0.33569070  0.04163608     1.78760
O611        O  0.05937787  0.35917394  0.42055199    -0.93420
O612        O  0.11144173  0.32511946  0.09090813    -0.41230
O613        O  0.05871685  0.33753386  0.01117111    -0.77860
O614        O  0.07888857  0.37397924  0.05704079    -0.96550
O615        O  0.08562510  0.44217627  0.03008551    -0.89850
O616        O  0.06536263  0.40223673  0.97913365    -0.92700
C617        C  0.19507265  0.35480409  0.03440893     1.01060
C618        C  0.16854397  0.41345043  0.42970348     1.13990
C619        C  0.20853720  0.45347555  0.07119152     1.04770
O620        O  0.13251038  0.42275066  0.11118820    -0.94850
O621        O  0.07376108  0.42979674  0.09099161    -0.90600
O622        O  0.02112853  0.39438217  0.06727430    -0.83740
C623        C  0.03844326  0.41296258  0.08854483     1.11410
O624        O  0.16739989  0.50602465  0.95631712    -0.96830
Zr625      Zr  0.11458159  0.46445248  0.98593298     1.88940
O626        O  0.01755355  0.42437095  0.01512150    -0.73470
O627        O  0.14022645  0.50027562  0.07376728    -0.52740
O628        O  0.14251164  0.52604491  0.00575139    -0.97410
O629        O  0.09781398  0.47462382  0.43894329    -0.54630
O630        O  0.06339886  0.47495851  0.99242739    -0.73990
C631        C  0.03133308  0.45721391  0.00395760     0.98350
O632        O  0.98208883  0.32789539  0.04435073    -0.62810
O633        O  0.08876616  0.30547231  0.45352838    -0.57610
O634        O  0.99436403  0.34519457  0.98900185    -0.94300
O635        O  0.01876217  0.31507254  0.46731176    -0.92720
O636        O  0.09008677  0.27907232  0.01820755    -0.93080
O637        O  0.04999419  0.28189020  0.06292659    -0.91860
C638        C  0.99091599  0.31762832  0.47544844     1.17200
H639        H  0.14064775  0.34347064  0.48907666     0.33140
H640        H  0.06594567  0.36357474  0.07453772     0.43990
H641        H  0.04772108  0.40199123  0.46593506     0.37520
H642        H  0.17822530  0.48726582  0.02062331     0.34000
H643        H  0.11404141  0.30271414  0.09146294     0.25790
H644        H  0.14873995  0.50333820  0.09337145     0.31720
H645        H  0.13130052  0.53882706  0.99541196     0.37630
H646        H  0.10422749  0.26953393  0.02869473     0.32090
H647        H  0.06973013  0.29350913  0.43901824     0.30970
H648        H  0.05291518  0.33476731  0.41294804     0.32650
H649        H  0.09898318  0.49899065  0.43949799     0.31620
H650        H  0.02991011  0.28780030  0.06127609     0.35620
H651        H  0.97871701  0.30552415  0.03491692     0.28350
H652        H  0.25405687  0.46241033  0.98554479     0.32580
H653        H  0.16687123  0.52952644  0.95434991     0.35430
H654        H  0.11254463  0.31543849  0.44339034     0.28040
H655        H  0.98860607  0.32450197  0.06369877     0.40920
H656        H  0.13197162  0.39871950  0.11061010     0.30970
H657        H  0.13635637  0.34571300  0.09554945     0.38590
H658        H  0.07117523  0.45637680  0.43719727     0.30440
H659        H  0.16271113  0.51698415  0.06269398     0.30500
H660        H  0.25044675  0.48548774  0.00934481     0.30770
Zr661      Zr  0.22682716  0.42329788  0.25544171     2.17510
O662        O  0.21935716  0.47491342  0.23838768    -0.51590
O663        O  0.16183967  0.37897272  0.26267322    -0.74790
O664        O  0.21404340  0.41782028  0.20456208    -0.81580
O665        O  0.26105428  0.47964817  0.31472954    -0.83320
O666        O  0.23931470  0.38571973  0.18594967    -0.78950
O667        O  0.20671296  0.44725698  0.29480245    -0.90580
O668        O  0.15766363  0.33744917  0.29626736    -0.76550
O669        O  0.21663428  0.36168903  0.24957898    -0.86040
O670        O  0.22845461  0.39925255  0.30123101    -0.85730
O671        O  0.27775321  0.42923943  0.22797561    -0.72480
O672        O  0.28695449  0.46607369  0.27390968    -0.84620
Zr673      Zr  0.32774020  0.38726713  0.28573968     2.26420
Zr674      Zr  0.26773398  0.36722470  0.22273561     2.06270
Zr675      Zr  0.28802614  0.44082214  0.31935331     2.10050
Zr676      Zr  0.21690189  0.33858199  0.29565673     1.78760
O677        O  0.31993480  0.49785253  0.34531929    -0.93420
O678        O  0.17553912  0.28171081  0.27152011    -0.41230
O679        O  0.27739214  0.37901734  0.31484881    -0.77860
O680        O  0.26724237  0.34399905  0.26895659    -0.96550
O681        O  0.32786069  0.41017922  0.23978439    -0.89850
O682        O  0.33756430  0.44817532  0.29104695    -0.92700
C683        C  0.14387985  0.35405414  0.28177366     1.01060
C684        C  0.22619959  0.46429630  0.31620539     1.13990
C685        C  0.22285842  0.40473285  0.18354861     1.04770
O686        O  0.21872305  0.30969563  0.20368745    -0.94850
O687        O  0.29043878  0.32216186  0.22516102    -0.90600
O688        O  0.33496988  0.34310629  0.25842969    -0.83740
C689        C  0.31566184  0.32006213  0.23956756     1.11410
O690        O  0.33071262  0.51679343  0.21643991    -0.96830
Zr691      Zr  0.33653161  0.47103091  0.24574372     1.88940
O692        O  0.39274040  0.42945782  0.27443574    -0.73470
O693        O  0.30664454  0.38025790  0.18158681    -0.52740
O694        O  0.36300309  0.47665044  0.19948396    -0.97410
O695        O  0.36949857  0.53287768  0.26531196    -0.54630
O696        O  0.39786654  0.48240298  0.25514313    -0.73990
C697        C  0.41174436  0.46326396  0.26511069     0.98350
O698        O  0.33422138  0.34020938  0.31305750    -0.62810
O699        O  0.25572621  0.41170572  0.36319763    -0.57610
O700        O  0.35637265  0.40952078  0.33006737    -0.94300
O701        O  0.33787334  0.44771932  0.34799732    -0.92720
O702        O  0.19779921  0.32737876  0.34457645    -0.93080
O703        O  0.21673623  0.28473096  0.31727192    -0.91860
C704        C  0.35605827  0.43067013  0.34879896     1.17200
H705        H  0.20940633  0.39636127  0.31389192     0.33140
H706        H  0.26348331  0.31912762  0.26936883     0.43990
H707        H  0.36091717  0.46480059  0.29953253     0.37520
H708        H  0.27970533  0.44155868  0.21022281     0.34000
H709        H  0.15478545  0.26731729  0.28478709     0.25790
H710        H  0.29069522  0.36100595  0.16826783     0.31720
H711        H  0.38877926  0.49748233  0.20069151     0.37630
H712        H  0.17097696  0.30915803  0.34431714     0.32090
H713        H  0.26389288  0.43250031  0.37613407     0.30970
H714        H  0.33773189  0.51661136  0.33174498     0.32650
H715        H  0.39398098  0.54542956  0.25594862     0.31620
H716        H  0.24259097  0.29423016  0.32315646     0.35620
H717        H  0.32618850  0.34098543  0.33229347     0.28350
H718        H  0.19562428  0.46325204  0.22826422     0.32580
H719        H  0.35617730  0.53561897  0.21061382     0.35430
H720        H  0.22932003  0.40292079  0.35995933     0.28040
H721        H  0.31440342  0.31590395  0.30645083     0.40920
H722        H  0.19613111  0.31151254  0.20527657     0.30970
H723        H  0.16467068  0.28961920  0.25626241     0.38590
H724        H  0.37469250  0.52870248  0.28487766     0.30440
H725        H  0.30971025  0.40379109  0.17337233     0.30500
H726        H  0.23847542  0.48755629  0.22363485     0.30770
Zr727      Zr  0.75146957  0.57092816  0.26777518     2.17510
O728        O  0.75819412  0.51741020  0.28004029    -0.51590
O729        O  0.81671449  0.61189878  0.25910880    -0.74790
O730        O  0.77033296  0.55589354  0.22347868    -0.81580
O731        O  0.73936875  0.60120934  0.33845091    -0.83320
O732        O  0.71659554  0.52195995  0.20219442    -0.78950
O733        O  0.76259998  0.56815052  0.31838824    -0.90580
O734        O  0.82346769  0.65879564  0.22987540    -0.76550
O735        O  0.74585186  0.59465367  0.22351336    -0.86040
O736        O  0.76683025  0.63404055  0.27500561    -0.85730
O737        O  0.68912736  0.53004489  0.25246939    -0.72480
O738        O  0.70577202  0.56959042  0.29818391    -0.84620
Zr739      Zr  0.65520792  0.61491769  0.24468008     2.26420
Zr740      Zr  0.68419671  0.55529630  0.20786346     2.06270
Zr741      Zr  0.71975960  0.63210697  0.30458821     2.10050
Zr742      Zr  0.76378700  0.65738581  0.22961265     1.78760
O743        O  0.69409444  0.63000662  0.35052586    -0.93420
O744        O  0.78560581  0.66659659  0.18139156    -0.41230
O745        O  0.71729151  0.65605670  0.25942577    -0.77860
O746        O  0.70124824  0.61919823  0.21272746    -0.96550
O747        O  0.63946077  0.55226625  0.23928974    -0.89850
O748        O  0.65776162  0.59178755  0.29002422    -0.92700
C749        C  0.83642976  0.64033695  0.24300190     1.01060
C750        C  0.75380112  0.58025168  0.33992727     1.13990
C751        C  0.75165699  0.53918812  0.20173976     1.04770
O752        O  0.70687284  0.57333499  0.16002449    -0.94850
O753        O  0.63510587  0.55618582  0.18133258    -0.90600
O754        O  0.62103733  0.59580743  0.20210942    -0.83740
C755        C  0.61721295  0.57368906  0.18272865     1.11410
O756        O  0.64643844  0.47949380  0.31041890    -0.96830
Zr757      Zr  0.64435716  0.52933109  0.28387493     1.88940
O758        O  0.59038219  0.57538541  0.25767219    -0.73470
O759        O  0.63915483  0.49233470  0.19446422    -0.52740
O760        O  0.60645319  0.46919833  0.26257968    -0.97410
O761        O  0.62418464  0.52380612  0.33228708    -0.54630
O762        O  0.58435646  0.52262074  0.27803713    -0.73990
C763        C  0.57101655  0.54228402  0.26819131     0.98350
O764        O  0.65185392  0.66530651  0.21978653    -0.62810
O765        O  0.77657407  0.68709652  0.31864565    -0.57610
O766        O  0.65036484  0.65703982  0.27499998    -0.94300
O767        O  0.69666144  0.67638654  0.30649020    -0.92720
O768        O  0.80381598  0.71536557  0.25287172    -0.93080
O769        O  0.76301277  0.70925567  0.20529354    -0.91860
C770        C  0.67020277  0.67858790  0.29430434     1.17200
H771        H  0.79091714  0.64849842  0.28321910     0.33140
H772        H  0.69891644  0.62933717  0.19492340     0.43990
H773        H  0.64028362  0.59261672  0.30260292     0.37520
H774        H  0.68478248  0.50505824  0.25080812     0.34000
H775        H  0.81023507  0.68943361  0.18143433     0.25790
H776        H  0.64746981  0.48970917  0.17579715     0.31720
H777        H  0.58252593  0.45760508  0.27271586     0.37630
H778        H  0.82730882  0.72681391  0.24216390     0.32090
H779        H  0.76840378  0.69991217  0.33139749     0.30970
H780        H  0.71546997  0.64764655  0.36167194     0.32650
H781        H  0.60557048  0.53180564  0.33197346     0.31620
H782        H  0.73827989  0.70563579  0.20945210     0.35620
H783        H  0.67181088  0.68859035  0.22766715     0.28350
H784        H  0.78407955  0.52543876  0.27501173     0.32580
H785        H  0.62066000  0.46190450  0.31640424     0.35430
H786        H  0.78902823  0.67730984  0.33096962     0.28040
H787        H  0.66062188  0.66576424  0.20056125     0.40920
H788        H  0.73267496  0.59383727  0.16184489     0.30970
H789        H  0.79095932  0.64631080  0.17839388     0.38590
H790        H  0.64571355  0.54396604  0.34182993     0.30440
H791        H  0.64361206  0.47569787  0.20701829     0.30500
H792        H  0.74317978  0.49860796  0.26611734     0.30770
C793        C  0.51121825  0.48567160  0.26097444    -0.12530
C794        C  0.53035910  0.52357165  0.26745411     0.04480
C795        C  0.51016522  0.54128140  0.27371034    -0.07810
C796        C  0.47146485  0.52058233  0.27335640    -0.08560
C797        C  0.45240566  0.48265031  0.26675702    -0.03110
C798        C  0.47269558  0.46504804  0.26078391     0.03710
N799        N  0.45493504  0.42677880  0.25344237     0.66210
H800        H  0.52639948  0.47177414  0.25595628     0.15110
H801        H  0.45611177  0.53434185  0.27823464     0.14820
N802        N  0.52808384  0.57948089  0.28149459     0.73920
O803        O  0.46347342  0.41826293  0.23071880    -0.39530
O804        O  0.43811333  0.40172785  0.27205834    -0.39470
O805        O  0.54753539  0.60492052  0.26378955    -0.40180
O806        O  0.51823565  0.58797721  0.30363004    -0.40240
C807        C  0.22356891  0.41506028  0.10363183    -0.12530
C808        C  0.21897598  0.44606293  0.09967706     0.04480
C809        C  0.21588238  0.46350232  0.12382311    -0.07810
C810        C  0.21461920  0.44781618  0.15057358    -0.08560
C811        C  0.21827554  0.41615483  0.15444472    -0.03110
C812        C  0.22376591  0.40030925  0.13033109     0.03710
N813        N  0.22895610  0.36876537  0.13222392     0.66210
H814        H  0.22479574  0.40046124  0.08574975     0.15110
H815        H  0.21239303  0.46167183  0.16863808     0.14820
N816        N  0.21394440  0.49705880  0.12174484     0.73920
O817        O  0.20434580  0.33854322  0.14336854    -0.39530
O818        O  0.25541185  0.36943840  0.11923033    -0.39470
O819        O  0.19422522  0.50233076  0.13874038    -0.40180
O820        O  0.23565683  0.52352112  0.10553714    -0.40240
C821        C  0.17541556  0.42339313  0.34949128    -0.12530
C822        C  0.20865880  0.45691815  0.34482503     0.04480
C823        C  0.22830136  0.47724234  0.36863856    -0.07810
C824        C  0.21578039  0.46183476  0.39594172    -0.08560
C825        C  0.18379343  0.42691967  0.40046411    -0.03110
C826        C  0.16340009  0.40775735  0.37648610     0.03710
N827        N  0.13154510  0.37111609  0.37877891     0.66210
H828        H  0.16012498  0.40713131  0.33181839     0.15110
H829        H  0.23060782  0.47778356  0.41386141     0.14820
N830        N  0.26044040  0.51377119  0.36559358     0.73920
O831        O  0.10368459  0.36276315  0.36374522    -0.39530
O832        O  0.13373913  0.34550381  0.39185964    -0.39470
O833        O  0.26285416  0.53536259  0.34557625    -0.40180
O834        O  0.28431124  0.52628006  0.38466432    -0.40240
C835        C  0.95556669  0.48070165  0.01723928    -0.12530
C836        C  0.97493319  0.51977071  0.01331994     0.04480
C837        C  0.01286757  0.53773175  0.00606410    -0.07810
C838        C  0.02974312  0.51637491  0.00204206    -0.08560
C839        C  0.01029271  0.47730584  0.00573315    -0.03110
C840        C  0.97248136  0.45935906  0.01335494     0.03710
N841        N  0.95031770  0.41956358  0.01626287     0.66210
H842        H  0.92635974  0.46609636  0.02233368     0.15110
H843        H  0.05896963  0.53091191  0.99701080     0.14820
N844        N  0.03516663  0.57753664  0.50365408     0.73920
O845        O  0.92785190  0.40497071  0.03646482    -0.39530
O846        O  0.94856523  0.39944900  0.99639338    -0.39470
O847        O  0.03696492  0.59716604  0.02388049    -0.40180
O848        O  0.05791764  0.59248600  0.48366178    -0.40240
C849        C  0.75494800  0.52702128  0.40684703    -0.12530
C850        C  0.76285213  0.55406485  0.42702132     0.04480
C851        C  0.76811633  0.58887566  0.41756854    -0.07810
C852        C  0.76791471  0.59680334  0.38908851    -0.08560
C853        C  0.75927428  0.56991863  0.36894739    -0.03110
C854        C  0.75131121  0.53378900  0.37811126     0.03710
N855        N  0.73753462  0.50331535  0.35931444     0.66210
H856        H  0.75062937  0.50005056  0.41370911     0.15110
H857        H  0.77262569  0.62412675  0.38276412     0.14820
N858        N  0.77038647  0.61555730  0.43656554     0.73920
O859        O  0.74280296  0.47638340  0.36444502    -0.39530
O860        O  0.71474504  0.49992055  0.34060693    -0.39470
O861        O  0.79473623  0.64939502  0.43292955    -0.40180
O862        O  0.74157621  0.60740442  0.45013640    -0.40240
C863        C  0.76655811  0.54744180  0.12293073    -0.12530
C864        C  0.80074185  0.58064185  0.12039596     0.04480
C865        C  0.82029775  0.59703973  0.14517116    -0.07810
C866        C  0.80541597  0.58029908  0.17130496    -0.08560
C867        C  0.77063855  0.54790265  0.17395916    -0.03110
C868        C  0.75153213  0.53057929  0.14919471     0.03710
N869        N  0.71720165  0.49575443  0.15019818     0.66210
H870        H  0.75206133  0.53348505  0.10424865     0.15110
H871        H  0.82028143  0.59452238  0.18980088     0.14820
N872        N  0.85483659  0.63143354  0.14441160     0.73920
O873        O  0.69303480  0.48879206  0.13175538    -0.39530
O874        O  0.71292890  0.47008652  0.16722139    -0.39470
O875        O  0.85736118  0.65980730  0.13194234    -0.40180
O876        O  0.88153947  0.63465354  0.15889436    -0.40240
C877        C  0.96988265  0.57455633  0.35906304    -0.12530
C878        C  0.00825687  0.59359777  0.36343155     0.04480
C879        C  0.02145120  0.59306864  0.39050617    -0.07810
C880        C  0.99705083  0.58340362  0.41307187    -0.08560
C881        C  0.95980163  0.57280117  0.40866746    -0.03110
C882        C  0.94532042  0.56365438  0.38151485     0.03710
N883        N  0.90643631  0.54584841  0.37621333     0.66210
H884        H  0.95891768  0.57125872  0.33814063     0.15110
H885        H  0.00774812  0.58666003  0.43411343     0.14820
N886        N  0.05924054  0.60334085  0.39535361     0.73920
O887        O  0.89454521  0.55716693  0.35614511    -0.39530
O888        O  0.88485873  0.51507683  0.38834995    -0.39470
O889        O  0.07506246  0.61897574  0.41761189    -0.40180
O890        O  0.07488444  0.59162119  0.37949093    -0.40240
C891        C  0.92623260  0.63837446  0.24761688    -0.12530
C892        C  0.94873787  0.66395362  0.22652346     0.04480
C893        C  0.93377522  0.68229305  0.21032428    -0.07810
C894        C  0.89760623  0.67529247  0.21653229    -0.08560
C895        C  0.87619519  0.65098835  0.23879737    -0.03110
C896        C  0.89196867  0.63363801  0.25511036     0.03710
N897        N  0.87487424  0.61286863  0.28050825     0.66210
H898        H  0.93630971  0.62329371  0.26009778     0.15110
H899        H  0.88571922  0.68808751  0.20331875     0.14820
N900        N  0.95350893  0.70594567  0.18662730     0.73920
O901        O  0.87440492  0.58275549  0.28606667    -0.39530
O902        O  0.86659759  0.62789953  0.29951531    -0.39470
O903        O  0.97248787  0.69774338  0.17114395    -0.40180
O904        O  0.94757249  0.73168123  0.17866508    -0.40240
C905        C  0.00354577  0.40906543  0.16180410    -0.12530
C906        C  0.96506564  0.38830326  0.15757654     0.04480
C907        C  0.95170597  0.38491575  0.13000446    -0.07810
C908        C  0.97685546  0.39658807  0.10764274    -0.08560
C909        C  0.01512314  0.41226185  0.11205460    -0.03110
C910        C  0.02862699  0.42119223  0.13950180     0.03710
N911        N  0.06739024  0.44031772  0.14541598     0.66210
H912        H  0.01460672  0.41412565  0.18276134     0.15110
H913        H  0.96608805  0.39173707  0.08658809     0.14820
N914        N  0.91301792  0.36871084  0.12421128     0.73920
O915        O  0.08794116  0.47294313  0.13566913    -0.39530
O916        O  0.07981341  0.42742947  0.16399139    -0.39470
O917        O  0.89441113  0.38068920  0.13611483    -0.40180
O918        O  0.89893521  0.34708734  0.10408109    -0.40240
C919        C  0.07924172  0.31080954  0.30034454    -0.12530
C920        C  0.10535454  0.34532653  0.28798241     0.04480
C921        C  0.09481916  0.37242274  0.28319112    -0.07810
C922        C  0.05895654  0.36412332  0.28926688    -0.08560
C923        C  0.03164546  0.32864260  0.29922975    -0.03110
C924        C  0.04260774  0.30217851  0.30616128     0.03710
N925        N  0.01739892  0.26680792  0.31915229     0.66210
H926        H  0.08726873  0.29029008  0.30535149     0.15110
H927        H  0.05213921  0.38561276  0.28453204     0.14820
N928        N  0.11994448  0.40872913  0.27176605     0.73920
O929        O  0.01788932  0.23797489  0.31228195    -0.39530
O930        O  0.99971196  0.26544854  0.34081308    -0.39470
O931        O  0.12295386  0.41373761  0.24556980    -0.40180
O932        O  0.13122077  0.43655837  0.28704710    -0.40240
C933        C  0.94935764  0.47712539  0.26421828    -0.12530
C934        C  0.96904853  0.45790458  0.26329804     0.04480
C935        C  0.00792428  0.47878827  0.26061796    -0.07810
C936        C  0.02595142  0.51771178  0.25959573    -0.08560
C937        C  0.00630277  0.53695906  0.26076309    -0.03110
C938        C  0.96738944  0.51606367  0.26303071     0.03710
N939        N  0.94552499  0.53363373  0.26368853     0.66210
H940        H  0.91948417  0.46185682  0.26584305     0.15110
H941        H  0.05582466  0.53292864  0.25801310     0.14820
N942        N  0.02978431  0.46123519  0.25940256     0.73920
O943        O  0.92472184  0.53018630  0.24340934    -0.39530
O944        O  0.94104076  0.54540878  0.28647176    -0.39470
O945        O  0.03228598  0.44790768  0.23672075    -0.40180
O946        O  0.05244402  0.46622535  0.27864591    -0.40240
C947        C  0.76740805  0.23458794  0.37537352    -0.12530
C948        C  0.79893438  0.23113271  0.37231396     0.04480
C949        C  0.81871808  0.23202996  0.39686195    -0.07810
C950        C  0.80667685  0.23609680  0.42310425    -0.08560
C951        C  0.77392283  0.23706431  0.42644843    -0.03110
C952        C  0.75475369  0.23771869  0.40197502     0.03710
N953        N  0.72255663  0.24158417  0.40371520     0.66210
H954        H  0.75299015  0.23578414  0.35685117     0.15110
H955        H  0.82128058  0.23458210  0.44136839     0.14820
N956        N  0.84977576  0.22630844  0.39596004     0.73920
O957        O  0.72024152  0.26136546  0.42220935    -0.39530
O958        O  0.69810828  0.22846210  0.38509005    -0.39470
O959        O  0.87750635  0.24512208  0.41111752    -0.40180
O960        O  0.84697541  0.19849809  0.38378293    -0.40240
C961        C  0.77463346  0.18583944  0.16980788    -0.12530
C962        C  0.76513787  0.21326505  0.17418097     0.04480
C963        C  0.75788188  0.22994999  0.15057342    -0.07810
C964        C  0.76180627  0.21982744  0.12349360    -0.08560
C965        C  0.77213316  0.19296145  0.11918120    -0.03110
C966        C  0.77889246  0.17598638  0.14283880     0.03710
N967        N  0.79158098  0.14986710  0.13989406     0.66210
H968        H  0.78157438  0.17385790  0.18752150     0.15110
H969        H  0.75479730  0.23162909  0.10563966     0.14820
N970        N  0.74577964  0.25651680  0.15372633     0.73920
O971        O  0.81438568  0.15478120  0.12081909    -0.39530
O972        O  0.78365888  0.12453041  0.15830291    -0.39470
O973        O  0.75215853  0.28072584  0.13469002    -0.40180
O974        O  0.72541032  0.25349628  0.17411788    -0.40240
C975        C  0.90462096  0.22150263  0.47792672    -0.12530
C976        C  0.87800526  0.23142296  0.48432472     0.04480
C977        C  0.88816549  0.26939373  0.48200897    -0.07810
C978        C  0.92434705  0.29617993  0.47485549    -0.08560
C979        C  0.95209763  0.28697943  0.47154967    -0.03110
C980        C  0.94159632  0.24879825  0.47165469     0.03710
N981        N  0.96793516  0.23721277  0.46636744     0.66210
H982        H  0.89685480  0.19238772  0.47852761     0.15110
H983        H  0.93138348  0.32510546  0.47417634     0.14820
N984        N  0.86260372  0.28180849  0.48760931     0.73920
O985        O  0.96698287  0.21077165  0.48071705    -0.39530
O986        O  0.98738124  0.24848438  0.44436238    -0.39470
O987        O  0.85548642  0.28472779  0.01266066    -0.40180
O988        O  0.85614557  0.29953408  0.46870469    -0.40240
C989        C  0.51432231  0.03583924  0.50551407    -0.12530
C990        C  0.53256785  0.01795424  0.01695523     0.04480
C991        C  0.51207461  0.97988635  0.02494078    -0.07810
C992        C  0.47380846  0.96055559  0.02069222    -0.08560
C993        C  0.45559956  0.97850956  0.00932382    -0.03110
C994        C  0.47612245  0.01654139  0.50127809     0.03710
N995        N  0.45911902  0.03544569  0.48767576     0.66210
H996        H  0.53026150  0.06482457  0.49870348     0.15110
H997        H  0.45780015  0.93155746  0.02744156     0.14820
N998        N  0.52912315  0.96100290  0.03850726     0.73920
O999        O  0.47235719  0.06992932  0.49063540    -0.39530
O1000       O  0.43400861  0.01899507  0.46991158    -0.39470
O1001       O  0.55467861  0.97764469  0.05591270    -0.40180
O1002       O  0.51555321  0.92641262  0.03590362    -0.40240
C1003       C  0.21475643  0.77214206  0.15734582    -0.12530
C1004       C  0.18843988  0.78333176  0.16066280     0.04480
C1005       C  0.17324135  0.79051614  0.13631123    -0.07810
C1006       C  0.18373789  0.78524110  0.10977056    -0.08560
C1007       C  0.21041950  0.77462703  0.10631972    -0.03110
C1008       C  0.22576401  0.76747541  0.13063677     0.03710
N1009       N  0.25168345  0.75449603  0.12864267     0.66210
H1010       H  0.22526743  0.76484606  0.17573669     0.15110
H1011       H  0.17274967  0.79215158  0.09154982     0.14820
N1012       N  0.14798023  0.80433933  0.13811000     0.73920
O1013       O  0.27512715  0.76129323  0.14764512    -0.39530
O1014       O  0.24873696  0.73291448  0.10951454    -0.39470
O1015       O  0.15244582  0.82753917  0.15635537    -0.40180
O1016       O  0.12378810  0.79676600  0.11958162    -0.40240
C1017       C  0.19429743  0.74981520  0.37712367    -0.12530
C1018       C  0.21977517  0.76771431  0.35509997     0.04480
C1019       C  0.25384210  0.79975849  0.36139719    -0.07810
C1020       C  0.25757384  0.81663346  0.38752409    -0.08560
C1021       C  0.22932684  0.80083750  0.40808617    -0.03110
C1022       C  0.19795317  0.76603325  0.40304551     0.03710
N1023       N  0.16813594  0.74795591  0.42298102     0.66210
H1024       H  0.16930823  0.72423695  0.37342583     0.15110
H1025       H  0.28294015  0.84199338  0.39214069     0.14820
N1026       N  0.28499361  0.81437319  0.34246767     0.73920
O1027       O  0.15489805  0.76600066  0.43399326    -0.39530
O1028       O  0.15133632  0.71297736  0.42629540    -0.39470
O1029       O  0.28485843  0.79568816  0.32210820    -0.40180
O1030       O  0.31458800  0.84388094  0.34796139    -0.40240
C1031       C  0.08473916  0.77328474  0.05176732    -0.12530
C1032       C  0.11199199  0.76516499  0.04337377     0.04480
C1033       C  0.10234775  0.72736500  0.04243783    -0.07810
C1034       C  0.06588141  0.69913032  0.04714601    -0.08560
C1035       C  0.03762279  0.70701150  0.05228387    -0.03110
C1036       C  0.04751661  0.74473784  0.05576463     0.03710
N1037       N  0.02025080  0.75505367  0.06118397     0.66210
H1038       H  0.09179030  0.80207854  0.05317859     0.15110
H1039       H  0.05918697  0.67052063  0.04496825     0.14820
N1040       N  0.12907386  0.71683835  0.03609342     0.73920
O1041       O  0.02680268  0.77958592  0.07880892    -0.39530
O1042       O  0.99318175  0.74517031  0.04499255    -0.39470
O1043       O  0.14599871  0.71130093  0.05584707    -0.40180
O1044       O  0.12850650  0.70391093  0.01246106    -0.40240
C1045       C  0.56164627  0.59998271  0.13624356    -0.12530
C1046       C  0.57610073  0.59805931  0.11042417     0.04480
C1047       C  0.59263760  0.57566095  0.10841471    -0.07810
C1048       C  0.60159115  0.56304480  0.13292079    -0.08560
C1049       C  0.59347622  0.57146725  0.15908534    -0.03110
C1050       C  0.56950623  0.58613264  0.16070384     0.03710
N1051       N  0.55463081  0.58873251  0.18697601     0.66210
H1052       H  0.54656439  0.61473576  0.13775456     0.15110
H1053       H  0.61778043  0.54943613  0.13144205     0.14820
N1054       N  0.60250543  0.56744599  0.08196668     0.73920
O1055       O  0.54751866  0.61442944  0.19074283    -0.39530
O1056       O  0.54456841  0.56290472  0.20527065    -0.39470
O1057       O  0.63152455  0.56557733  0.07952172    -0.40180
O1058       O  0.57989434  0.55723196  0.06207092    -0.40240
C1059       C  0.74770883  0.70711464  0.47782200    -0.12530
C1060       C  0.71133069  0.67650287  0.47806257     0.04480
C1061       C  0.70587028  0.64115004  0.48659787    -0.07810
C1062       C  0.73527183  0.63816093  0.49764017    -0.08560
C1063       C  0.77188902  0.66784112  0.49603417    -0.03110
C1064       C  0.77818595  0.70312822  0.48617947     0.03710
N1065       N  0.81452201  0.73548213  0.48635348     0.66210
H1066       H  0.75228913  0.73455846  0.47223489     0.15110
H1067       H  0.72974679  0.61073509  0.00449508     0.14820
N1068       N  0.67102396  0.60754737  0.48293910     0.73920
O1069       O  0.82284216  0.76228764  0.46925122    -0.39530
O1070       O  0.83650589  0.73965454  0.00592893    -0.39470
O1071       O  0.65404461  0.60241384  0.46011144    -0.40180
O1072       O  0.65999687  0.58083701  0.00061191    -0.40240
C1073       C  0.64154917  0.89439086  0.05272050    -0.12530
C1074       C  0.66359521  0.89009194  0.03278081     0.04480
C1075       C  0.69302989  0.92217226  0.01966869    -0.07810
C1076       C  0.69915824  0.95749522  0.02697226    -0.09040
C1077       C  0.67638729  0.96164339  0.04630546    -0.03110
C1078       C  0.64774375  0.92969205  0.05996718     0.03710
N1079       N  0.62443835  0.93251812  0.08065404     0.66210
H1080       H  0.61863717  0.86977243  0.06232842     0.15110
H1081       H  0.72011119  0.98207203  0.51576137     0.14820
N1082       N  0.71523069  0.91972495  0.49778764     0.73920
O1083       O  0.59461016  0.90406420  0.08846189    -0.39530
O1084       O  0.63511105  0.96251852  0.09317880    -0.39470
O1085       O  0.70345077  0.89060414  0.48389122    -0.40180
O1086       O  0.74551659  0.94799447  0.49052668    -0.40240
C1087       C  0.28548997  0.36086893  0.05867655    -0.12530
C1088       C  0.27621517  0.32325851  0.06034660     0.04480
C1089       C  0.23875993  0.29579076  0.05611935    -0.07810
C1090       C  0.21277058  0.30688314  0.04856653    -0.08560
C1091       C  0.22334960  0.34458075  0.04364665    -0.03110
C1092       C  0.26043676  0.37183710  0.04921367     0.03710
N1093       N  0.27400423  0.41082329  0.04432751     0.66210
H1094       H  0.31413576  0.38230549  0.06117155     0.15110
H1095       H  0.18427482  0.28574717  0.04519042     0.14820
N1096       N  0.22712495  0.25679326  0.05749955     0.73920
O1097       O  0.29273246  0.43341699  0.06298877    -0.39530
O1098       O  0.27631257  0.42316521  0.01959041    -0.39470
O1099       O  0.24157138  0.24448535  0.07479146    -0.40180
O1100       O  0.19991060  0.23396308  0.54340669    -0.40240
C1101       C  0.41167522  0.41024304  0.39734921    -0.12530
C1102       C  0.38168117  0.38221566  0.41280098     0.04480
C1103       C  0.34613177  0.37787102  0.40993831    -0.07810
C1104       C  0.34208630  0.40343021  0.39354985    -0.08560
C1105       C  0.37046663  0.42769954  0.37540560    -0.03110
C1106       C  0.40614328  0.43253129  0.37768895     0.03710
N1107       N  0.43602914  0.45874317  0.35974592     0.66210
H1108       H  0.43902243  0.41396045  0.40005036     0.15110
H1109       H  0.31439373  0.39892283  0.39063961     0.14820
N1110       N  0.31330115  0.34512456  0.42022568     0.73920
O1111       O  0.46611567  0.45865518  0.35895207    -0.39530
O1112       O  0.43336586  0.48354395  0.34580656    -0.39470
O1113       O  0.28616989  0.34755601  0.42877495    -0.40180
O1114       O  0.30873760  0.31328856  0.41573858    -0.40240
C1115       C  0.47406471  0.48358937  0.03930716    -0.12530
C1116       C  0.46816893  0.46397008  0.01476499     0.04480
C1117       C  0.48595834  0.48320681  0.48966208    -0.07810
C1118       C  0.50967719  0.52180144  0.48987019    -0.08560
C1119       C  0.51524343  0.54147325  0.01429405    -0.03110
C1120       C  0.49657362  0.52243238  0.03927617     0.03710
N1121       N  0.49971546  0.54180448  0.06452025     0.66210
H1122       H  0.46071583  0.46847004  0.05852688     0.15110
H1123       H  0.52306756  0.53682896  0.47062504     0.14820
N1124       N  0.48056782  0.46408197  0.46397526     0.73920
O1125       O  0.49673402  0.52594043  0.08804287    -0.39530
O1126       O  0.50070579  0.57265959  0.06353779    -0.39470
O1127       O  0.44877294  0.43859245  0.45737545    -0.40180
O1128       O  0.50633847  0.47601129  0.44609795    -0.40240
C1129       C  0.35174378  0.06546316  0.99728276    -0.12530
C1130       C  0.32132146  0.03995773  0.48159243     0.04480
C1131       C  0.29759581  0.05232344  0.47052206    -0.07810
C1132       C  0.30555451  0.08938092  0.47489976    -0.08560
C1133       C  0.33551382  0.11412405  0.49150391    -0.03110
C1134       C  0.35797784  0.10077060  0.00347235     0.03710
N1135       N  0.38643540  0.12175325  0.02323947     0.66210
H1136       H  0.37039905  0.05738193  0.00659198     0.15110
H1137       H  0.28780518  0.09863519  0.46556033     0.14820
N1138       N  0.26544735  0.02808787  0.45493064     0.73920
O1139       O  0.37807535  0.13035031  0.04601803    -0.39530
O1140       O  0.41810975  0.12555217  0.02037717    -0.39470
O1141       O  0.23926015  0.99968148  0.46688992    -0.40180
O1142       O  0.25983507  0.03912506  0.43155200    -0.40240
C1143       C  0.56643452  0.97995275  0.38451394    -0.12530
C1144       C  0.59322212  0.97461814  0.37155198     0.04480
C1145       C  0.63115609  0.99898206  0.37615123    -0.07810
C1146       C  0.64163536  0.02964546  0.39234086    -0.08560
C1147       C  0.61527466  0.03436117  0.40633567    -0.03110
C1148       C  0.57712668  0.00952969  0.40270490     0.03710
N1149       N  0.54952322  0.01418453  0.41693141     0.66210
H1150       H  0.53750720  0.96160383  0.37995133     0.15110
H1151       H  0.67077926  0.04780001  0.39657143     0.14820
N1152       N  0.65916345  0.99220428  0.36515846     0.73920
O1153       O  0.51610638  0.98854142  0.41715536    -0.39530
O1154       O  0.55782870  0.04473632  0.42775400    -0.39470
O1155       O  0.69134074  0.01899816  0.36012223    -0.40180
O1156       O  0.65314632  0.95934882  0.36355787    -0.40240
C1157       C  0.76851286  0.08204995  0.23019305    -0.12530
C1158       C  0.75982363  0.11026355  0.23401238     0.04480
C1159       C  0.72300911  0.10158475  0.22926898    -0.07810
C1160       C  0.69570661  0.06512777  0.22331466    -0.08560
C1161       C  0.70318741  0.03573214  0.22296411    -0.03110
C1162       C  0.74066484  0.04474314  0.22536266     0.03710
N1163       N  0.75103169  0.01666122  0.22468009     0.66210
H1164       H  0.79680477  0.08849660  0.23296027     0.15110
H1165       H  0.66743212  0.05912032  0.22128267     0.14820
N1166       N  0.71235673  0.12921561  0.23093072     0.73920
O1167       O  0.78097466  0.02397479  0.21302287    -0.39530
O1168       O  0.73381080  0.98706953  0.23933714    -0.39470
O1169       O  0.69965725  0.13714994  0.20950164    -0.40180
O1170       O  0.70622812  0.13767624  0.25458743    -0.40240
C1171       C  0.54148352  0.74092324  0.35902483    -0.12530
C1172       C  0.52076509  0.75871747  0.35662603     0.04480
C1173       C  0.51059454  0.76917504  0.38165078    -0.07810
C1174       C  0.52769121  0.76852460  0.40707971    -0.08560
C1175       C  0.55177389  0.75426811  0.40873364    -0.03110
C1176       C  0.55541008  0.73690526  0.38470651     0.03710
N1177       N  0.57170074  0.71371113  0.38604795     0.66210
H1178       H  0.54780579  0.73075566  0.34059512     0.15110
H1179       H  0.52198506  0.77904035  0.42567681     0.14820
N1180       N  0.48340540  0.78064223  0.38164183     0.73920
O1181       O  0.59429891  0.71686424  0.36736614    -0.39530
O1182       O  0.55769870  0.68527497  0.40217580    -0.39470
O1183       O  0.45512457  0.76432200  0.36653317    -0.40180
O1184       O  0.48434166  0.80243246  0.39987510    -0.40240
C1185       C  0.53113174  0.77671341  0.12208756    -0.12530
C1186       C  0.56243078  0.78428969  0.10628331     0.04480
C1187       C  0.59650947  0.79753921  0.12039998    -0.07810
C1188       C  0.59829597  0.80249344  0.14919184    -0.08560
C1189       C  0.56759892  0.79584367  0.16476457    -0.03110
C1190       C  0.53332781  0.78312602  0.15104260     0.03710
N1191       N  0.50099398  0.77766809  0.16565453     0.66210
H1192       H  0.50461539  0.76511359  0.11182678     0.15110
H1193       H  0.62481788  0.81395462  0.15949122     0.14820
N1194       N  0.63002160  0.80660416  0.10621125     0.73920
O1195       O  0.47659935  0.78143446  0.15277054    -0.39530
O1196       O  0.49465624  0.76523582  0.19055205    -0.39470
O1197       O  0.63906661  0.82720764  0.08459227    -0.40180
O1198       O  0.65479669  0.80368715  0.11926285    -0.40240
C1199       C  0.67653381  0.77296016  0.29889389    -0.12530
C1200       C  0.63943570  0.76256238  0.29364809     0.04480
C1201       C  0.61270770  0.72400558  0.29413431    -0.07810
C1202       C  0.62368631  0.69764269  0.29880989    -0.08560
C1203       C  0.66099490  0.70779210  0.30121768    -0.03110
C1204       C  0.68771699  0.74614380  0.30240088     0.03710
N1205       N  0.72625590  0.75849064  0.30560043     0.66210
H1206       H  0.69727484  0.80222980  0.29924446     0.15110
H1207       H  0.60279841  0.66842009  0.29793826     0.14820
N1208       N  0.57441483  0.71046081  0.28849214     0.73920
O1209       O  0.75010969  0.78681956  0.29194573    -0.39530
O1210       O  0.73672550  0.74525219  0.32531515    -0.39470
O1211       O  0.56469466  0.71131005  0.26358922    -0.40180
O1212       O  0.55046180  0.68779139  0.30574245    -0.40240
C1213       C  0.41672305  0.02570265  0.13828055    -0.12530
C1214       C  0.39395220  0.00991423  0.16203387     0.04480
C1215       C  0.36966702  0.97089911  0.16374881    -0.07810
C1216       C  0.36658575  0.94938075  0.14125605    -0.08560
C1217       C  0.38507613  0.96591925  0.11611134    -0.03110
C1218       C  0.41272925  0.00395778  0.11514498     0.03710
N1219       N  0.43603527  0.02065900  0.09084098     0.66210
H1220       H  0.43674276  0.05521279  0.13739722     0.15110
H1221       H  0.34542245  0.92019366  0.14236643     0.14820
N1222       N  0.34369138  0.95315872  0.18618543     0.73920
O1223       O  0.45309754  0.05553576  0.08678637    -0.39530
O1224       O  0.44276360  0.00105052  0.07493634    -0.39470
O1225       O  0.31115253  0.94704569  0.18321495    -0.40180
O1226       O  0.35046271  0.93623578  0.20553009    -0.40240
C1227       C  0.27126987  0.93157448  0.30967790    -0.12530
C1228       C  0.26656305  0.96188133  0.30289217     0.04480
C1229       C  0.23128523  0.95458361  0.29351458    -0.07810
C1230       C  0.20329211  0.91733929  0.28855476    -0.08560
C1231       C  0.20973213  0.88753380  0.29324816    -0.03110
C1232       C  0.24353357  0.89511708  0.30512533     0.03710
N1233       N  0.24960098  0.86556706  0.31360476     0.66210
H1234       H  0.29759082  0.93639535  0.31764677     0.15110
H1235       H  0.17683145  0.91171726  0.28041467     0.14820
N1236       N  0.22366375  0.98422303  0.28828070     0.73920
O1237       O  0.27907333  0.86647685  0.30674837    -0.39530
O1238       O  0.22772102  0.84129861  0.33104825    -0.39470
O1239       O  0.20157191  0.98154832  0.26918550    -0.40180
O1240       O  0.23320413  0.00940867  0.30587220    -0.40240
C1241       C  0.50220927  0.98760793  0.28450584    -0.12530
C1242       C  0.51169697  0.98091466  0.25821926     0.04480
C1243       C  0.49502606  0.98573601  0.23388084    -0.07810
C1244       C  0.46870794  0.99688198  0.23668626    -0.08560
C1245       C  0.45925304  0.00353205  0.26301960    -0.03110
C1246       C  0.47581055  0.99852058  0.28731047     0.03710
N1247       N  0.46564680  0.00379373  0.31480320     0.66210
H1248       H  0.51387723  0.98211397  0.30308468     0.15110
H1249       H  0.45707666  0.00253645  0.21816002     0.14820
N1250       N  0.50523054  0.98046016  0.20639759     0.73920
O1251       O  0.48727398  0.01021715  0.33509690    -0.39530
O1252       O  0.43373712  0.99859393  0.31951346    -0.39470
O1253       O  0.53676745  0.98458582  0.20188676    -0.40180
O1254       O  0.48411038  0.97512660  0.18592768    -0.40240
C1255       C  0.45931826  0.22551586  0.14814549    -0.12530
C1256       C  0.43357067  0.21780963  0.16970701     0.04480
C1257       C  0.39753636  0.20921826  0.16231444    -0.07810
C1258       C  0.38721278  0.20530557  0.13430470    -0.08560
C1259       C  0.41299612  0.21431588  0.11263368    -0.03110
C1260       C  0.44979368  0.22500764  0.11982540     0.03710
N1261       N  0.47805064  0.23657046  0.09896470     0.66210
H1262       H  0.48696331  0.23148496  0.15336143     0.15110
H1263       H  0.35923746  0.19851268  0.12934694     0.14820
N1264       N  0.37174603  0.20691005  0.18273744     0.73920
O1265       O  0.50795199  0.26699291  0.10131246    -0.39530
O1266       O  0.47622481  0.21340384  0.08167776    -0.39470
O1267       O  0.38108657  0.23476594  0.19753065    -0.40180
O1268       O  0.33783490  0.18351357  0.18026143    -0.40240
C1269       C  0.44979792  0.19762169  0.41628407    -0.12530
C1270       C  0.45001555  0.23158100  0.41653733     0.04480
C1271       C  0.44767243  0.24752885  0.39026730    -0.07810
C1272       C  0.44525653  0.22999700  0.36561245    -0.08560
C1273       C  0.44026820  0.19456955  0.36565466    -0.03110
C1274       C  0.44512317  0.17883291  0.39099445     0.03710
N1275       N  0.44639803  0.14483988  0.39123679     0.66210
H1276       H  0.45245190  0.18538673  0.43581520     0.15110
H1277       H  0.44217058  0.24256566  0.34635289     0.14820
N1278       N  0.44192381  0.27851739  0.38749527     0.73920
O1279       O  0.44024839  0.12564763  0.41357616    -0.39530
O1280       O  0.45867112  0.13664990  0.37024797    -0.39470
O1281       O  0.47004722  0.31035387  0.38428204    -0.40180
O1282       O  0.41241203  0.27286956  0.37593538    -0.40240
C1283       C  0.36298313  0.26294415  0.24472115    -0.12530
C1284       C  0.33314537  0.22627727  0.24797179     0.04480
C1285       C  0.29683760  0.22040190  0.24515435    -0.07810
C1286       C  0.29174854  0.25124559  0.23954032    -0.08560
C1287       C  0.32187338  0.28786177  0.23663654    -0.03110
C1288       C  0.35802043  0.29331168  0.23798991     0.03710
N1289       N  0.38996892  0.32930204  0.23195010     0.66210
H1290       H  0.39088162  0.26778384  0.24613056     0.15110
H1291       H  0.26399647  0.24694597  0.23946671     0.14820
N1292       N  0.26495103  0.18420884  0.25013246     0.73920
O1293       O  0.42167529  0.33599493  0.23938580    -0.39530
O1294       O  0.38743723  0.35247745  0.21580320    -0.39470
O1295       O  0.26492635  0.16320991  0.26973273    -0.40180
O1296       O  0.23502519  0.17541450  0.23779887    -0.40240
Zr1297     Zr  0.41315750  0.17897807  0.76646787     2.17510
O1298       O  0.46462864  0.24176846  0.77270020    -0.51590
O1299       O  0.37181760  0.20411787  0.76603315    -0.74790
O1300       O  0.42578000  0.21152049  0.72004244    -0.81580
O1301       O  0.40033814  0.13832241  0.84357123    -0.83320
O1302       O  0.45526984  0.18719329  0.69891044    -0.78950
O1303       O  0.42990174  0.19136773  0.81637749    -0.90580
O1304       O  0.32210924  0.16387160  0.74092990    -0.76550
O1305       O  0.38103537  0.14874741  0.72492146    -0.86040
O1306       O  0.35259361  0.13339276  0.78391727    -0.85730
O1307       O  0.44824656  0.15382594  0.74578727    -0.72480
O1308       O  0.42165869  0.13723985  0.79702760    -0.84620
Zr1309     Zr  0.36660412  0.03733397  0.74997071     2.26420
Zr1310     Zr  0.41431027  0.12148250  0.70482359     2.06270
Zr1311     Zr  0.36209367  0.08982025  0.81184944     2.10050
Zr1312     Zr  0.32225303  0.10430496  0.74198631     1.78760
O1313       O  0.37195929  0.05793643  0.85155265    -0.93420
O1314       O  0.29626984  0.10930232  0.69754602    -0.41230
O1315       O  0.36554514  0.09079116  0.76319523    -0.77860
O1316       O  0.35237430  0.07492100  0.71874052    -0.96550
O1317       O  0.42639048  0.08243525  0.73512392    -0.89850
O1318       O  0.39575765  0.06279424  0.79290053    -0.92700
C1319       C  0.34222661  0.19571058  0.75231499     1.01060
C1320       C  0.42292659  0.17335023  0.84028263     1.13990
C1321       C  0.44080506  0.20752997  0.69804596     1.04770
O1322       O  0.38390766  0.12715040  0.66298124    -0.94850
O1323       O  0.40766278  0.06901575  0.67867684    -0.90600
O1324       O  0.37977759  0.01821460  0.70748456    -0.83740
C1325       C  0.39417575  0.03408761  0.68410092     1.11410
O1326       O  0.50713985  0.16733489  0.79725861    -0.96830
Zr1327     Zr  0.45569967  0.11219886  0.77716978     1.88940
O1328       O  0.40775127  0.01196859  0.75525973    -0.73470
O1329       O  0.46564893  0.13520923  0.67359700    -0.52740
O1330       O  0.51047792  0.13337217  0.74792466    -0.97410
O1331       O  0.47496983  0.10111196  0.82292709    -0.54630
O1332       O  0.46115877  0.05825572  0.77292717    -0.73990
C1333       C  0.44102276  0.02550617  0.76400172     0.98350
O1334       O  0.30624737  0.98812521  0.73483671    -0.62810
O1335       O  0.31283409  0.09333129  0.83573510    -0.57610
O1336       O  0.32750635  0.99666140  0.78678398    -0.94300
O1337       O  0.30482950  0.02925382  0.80651279    -0.92720
O1338       O  0.27541379  0.08182199  0.77862669    -0.93080
O1339       O  0.26846303  0.04234829  0.73879812    -0.91860
C1340       C  0.30135094  0.99833183  0.79878719     1.17200
H1341       H  0.34032125  0.14381417  0.79416107     0.33140
H1342       H  0.33835947  0.06109803  0.70286109     0.43990
H1343       H  0.39689566  0.04462732  0.80524483     0.37520
H1344       H  0.47299392  0.17381454  0.74157531     0.34000
H1345       H  0.29473520  0.08897148  0.68630960     0.25790
H1346       H  0.46516731  0.15189215  0.65862349     0.31720
H1347       H  0.52378483  0.12154154  0.75644836     0.37630
H1348       H  0.26024614  0.09328997  0.77383585     0.32090
H1349       H  0.30475696  0.07417465  0.85096295     0.30970
H1350       H  0.34683973  0.03832894  0.85742672     0.32650
H1351       H  0.49486026  0.09552316  0.81903045     0.31620
H1352       H  0.26854661  0.03507293  0.71932802     0.35620
H1353       H  0.28781723  0.99315817  0.74330301     0.28350
H1354       H  0.45548082  0.25829614  0.76568406     0.32580
H1355       H  0.52828884  0.16294094  0.79755439     0.35430
H1356       H  0.32550163  0.11730343  0.84543143     0.28040
H1357       H  0.30542897  0.99367090  0.71470580     0.40920
H1358       H  0.36096341  0.12563108  0.66984977     0.30970
H1359       H  0.27025680  0.10147105  0.70199245     0.38590
H1360       H  0.45415268  0.07722103  0.83005905     0.30440
H1361       H  0.48828825  0.15097740  0.68434152     0.30500
H1362       H  0.48330828  0.24481279  0.75871091     0.30770
Zr1363     Zr  0.56013494  0.80805917  0.76436014     2.17510
O1364       O  0.50554194  0.74817342  0.75522930    -0.51590
O1365       O  0.60026162  0.78276249  0.77335719    -0.74790
O1366       O  0.56144243  0.79352183  0.71479608    -0.81580
O1367       O  0.50780804  0.79753542  0.82694403    -0.83320
O1368       O  0.59689112  0.84889775  0.69098491    -0.78950
O1369       O  0.53368378  0.76847259  0.80708436    -0.90580
O1370       O  0.64905235  0.82426844  0.79839382    -0.76550
O1371       O  0.62209084  0.85589063  0.75272802    -0.86040
O1372       O  0.58792742  0.83763273  0.80718102    -0.85730
O1373       O  0.55629199  0.85178035  0.73227492    -0.72480
O1374       O  0.52246643  0.83158429  0.78218981    -0.84620
Zr1375     Zr  0.60520154  0.95010459  0.77971372     2.26420
Zr1376     Zr  0.61878109  0.90090595  0.72166033     2.06270
Zr1377     Zr  0.55170116  0.86290813  0.82427611     2.10050
Zr1378     Zr  0.64893504  0.88343669  0.79585870     1.78760
O1379       O  0.49639315  0.85194766  0.84896193    -0.93420
O1380       O  0.70442220  0.89652528  0.77013690    -0.41230
O1381       O  0.61326204  0.91004433  0.81255337    -0.77860
O1382       O  0.64521955  0.92786385  0.76514983    -0.96550
O1383       O  0.57887013  0.92280339  0.73677401    -0.89850
O1384       O  0.54439929  0.90288392  0.79169903    -0.92700
C1385       C  0.62907394  0.79181613  0.78809807     1.01060
C1386       C  0.51842592  0.77383688  0.82838610     1.13990
C1387       C  0.57579967  0.81334917  0.69217353     1.04770
O1388       O  0.67334679  0.90385481  0.70131258    -0.94850
O1389       O  0.66690211  0.96819096  0.71641507    -0.90600
O1390       O  0.64892879  0.99626017  0.74735439    -0.83740
C1391       C  0.67087655  0.99746046  0.72844938     1.11410
O1392       O  0.46879296  0.81594695  0.72985651    -0.96830
Zr1393     Zr  0.51809481  0.87333907  0.74911700     1.88940
O1394       O  0.56258503  0.97278665  0.76913266    -0.73470
O1395       O  0.60497587  0.92254499  0.67788939    -0.52740
O1396       O  0.50810993  0.88337445  0.70018846    -0.97410
O1397       O  0.45917905  0.85469642  0.77193482    -0.54630
O1398       O  0.51181247  0.92710032  0.74812386    -0.73990
C1399       C  0.53063077  0.95954282  0.75784939     0.98350
O1400       O  0.64784606  0.01015707  0.79980595    -0.62810
O1401       O  0.57781039  0.85493988  0.86786771    -0.57610
O1402       O  0.60001630  0.96574269  0.82581087    -0.94300
O1403       O  0.56233628  0.91460391  0.85261514    -0.92720
O1404       O  0.65812347  0.87507648  0.84527843    -0.93080
O1405       O  0.70356552  0.93734538  0.81412213    -0.91860
C1406       C  0.58344461  0.94969753  0.84856216     1.17200
H1407       H  0.58969430  0.82113485  0.82087761     0.33140
H1408       H  0.67025374  0.94817327  0.76343474     0.43990
H1409       H  0.53033735  0.91266879  0.80020327     0.37520
H1410       H  0.54288636  0.84005311  0.71566274     0.34000
H1411       H  0.71653982  0.88611556  0.78219866     0.25790
H1412       H  0.62049004  0.91979725  0.66373797     0.31720
H1413       H  0.48775424  0.88896429  0.70039078     0.37630
H1414       H  0.67402659  0.86375022  0.84566245     0.32090
H1415       H  0.55865545  0.84910692  0.88223330     0.30970
H1416       H  0.47764276  0.84547085  0.83419158     0.32650
H1417       H  0.44614275  0.86290238  0.75879563     0.31620
H1418       H  0.72006327  0.92811472  0.82070806     0.35620
H1419       H  0.67312090  0.01503011  0.79587301     0.28350
H1420       H  0.51324406  0.73594505  0.74153901     0.32580
H1421       H  0.45049806  0.82215667  0.72212368     0.35430
H1422       H  0.57885887  0.83183330  0.86635560     0.28040
H1423       H  0.64539993  0.02931792  0.78878817     0.40920
H1424       H  0.66973147  0.87858153  0.70440955     0.30970
H1425       H  0.69533141  0.87986274  0.75405065     0.38590
H1426       H  0.46539548  0.87133529  0.78793060     0.30440
H1427       H  0.57939370  0.90314426  0.67348192     0.30500
H1428       H  0.48871990  0.75441303  0.74491909     0.30770
Zr1429     Zr  0.41674293  0.24095182  0.51293708     2.17510
O1430       O  0.47334850  0.23882055  0.51930869    -0.51590
O1431       O  0.37722074  0.17571716  0.50516727    -0.74790
O1432       O  0.41769143  0.22099943  0.56204706    -0.81580
O1433       O  0.45730167  0.28250956  0.94128770    -0.83320
O1434       O  0.38135661  0.23701650  0.58652241    -0.78950
O1435       O  0.43671953  0.22908626  0.96659536    -0.90580
O1436       O  0.32328863  0.16573997  0.98663063    -0.76550
O1437       O  0.35583618  0.22524978  0.52842280    -0.86040
O1438       O  0.38500301  0.24397042  0.97248459    -0.85730
O1439       O  0.42177625  0.28624164  0.54608514    -0.72480
O1440       O  0.45328733  0.30394105  0.99580812    -0.84620
Zr1441     Zr  0.37100545  0.33819709  0.00154305     2.26420
Zr1442     Zr  0.36022789  0.27227116  0.55931913     2.06270
Zr1443     Zr  0.41999702  0.30710402  0.95602363     2.10050
Zr1444     Zr  0.32492737  0.22651868  0.98727991     1.78760
O1445       O  0.47174505  0.34948352  0.92621613    -0.93420
O1446       O  0.27265498  0.18757518  0.51809472    -0.41230
O1447       O  0.35903636  0.29046384  0.96930528    -0.77860
O1448       O  0.33097473  0.27442864  0.51737542    -0.96550
O1449       O  0.39947228  0.33532357  0.54364701    -0.89850
O1450       O  0.43118800  0.35316274  0.98843845    -0.92700
C1451       C  0.34548071  0.15423559  0.49472941     1.01060
C1452       C  0.44891650  0.24864891  0.94340180     1.13990
C1453       C  0.40283536  0.22339216  0.58493820     1.04770
O1454       O  0.30574500  0.22119770  0.58205333    -0.94850
O1455       O  0.31427335  0.29347570  0.56704127    -0.90600
O1456       O  0.32460392  0.33478863  0.53149541    -0.83740
C1457       C  0.30708508  0.31652695  0.55335925     1.11410
O1458       O  0.50789678  0.33920682  0.55114840    -0.96830
Zr1459     Zr  0.45968713  0.34804997  0.52974237     1.88940
O1460       O  0.41608208  0.40415230  0.00813371    -0.73470
O1461       O  0.37961920  0.30432821  0.60333141    -0.52740
O1462       O  0.47009943  0.36901449  0.57767191    -0.97410
O1463       O  0.51863602  0.38581023  0.00549653    -0.54630
O1464       O  0.46890143  0.40975077  0.52626955    -0.73990
C1465       C  0.44942687  0.42333947  0.01688439     0.98350
O1466       O  0.33814052  0.37194987  0.99209828    -0.62810
O1467       O  0.37142659  0.27568718  0.92184138    -0.57610
O1468       O  0.36334048  0.34391365  0.95275669    -0.94300
O1469       O  0.41646843  0.35674917  0.93246485    -0.92720
O1470       O  0.30643115  0.20257168  0.94051751    -0.93080
O1471       O  0.27071871  0.22663143  0.96861976    -0.91860
C1472       C  0.38781482  0.35987840  0.93374095     1.17200
H1473       H  0.38134612  0.22658213  0.95819286     0.33140
H1474       H  0.30595311  0.26887976  0.52029381     0.43990
H1475       H  0.44556665  0.37720671  0.97922742     0.37520
H1476       H  0.43556566  0.28631979  0.56228969     0.34000
H1477       H  0.25392467  0.16869774  0.50580326     0.25790
H1478       H  0.36441765  0.28514368  0.61771111     0.31720
H1479       H  0.49114102  0.39489209  0.57646420     0.37630
H1480       H  0.28650188  0.17635149  0.94349379     0.32090
H1481       H  0.37864599  0.29266225  0.90518244     0.30970
H1482       H  0.49158568  0.36501418  0.93936811     0.32650
H1483       H  0.53211290  0.40846605  0.01662815     0.31620
H1484       H  0.27760576  0.25318230  0.96802753     0.35620
H1485       H  0.35424070  0.39289972  0.97917734     0.28350
H1486       H  0.46513558  0.21330175  0.52660513     0.32580
H1487       H  0.52702288  0.36406288  0.55738537     0.35430
H1488       H  0.37256189  0.25367537  0.91629596     0.28040
H1489       H  0.31647641  0.35523478  0.98076698     0.40920
H1490       H  0.30714016  0.19865774  0.57825430     0.30970
H1491       H  0.28105565  0.17342980  0.53001238     0.38590
H1492       H  0.51243739  0.39456797  0.98794790     0.30440
H1493       H  0.40493094  0.30871618  0.60622806     0.30500
H1494       H  0.48591846  0.25524051  0.53513012     0.30770
Zr1495     Zr  0.58099544  0.76808738  0.50878411     2.17510
O1496       O  0.53149413  0.78207749  0.50234256    -0.51590
O1497       O  0.62417683  0.83398730  0.51056460    -0.74790
O1498       O  0.57423959  0.78778485  0.55621134    -0.81580
O1499       O  0.59675083  0.74671580  0.93348415    -0.83320
O1500       O  0.53857996  0.73296914  0.57755966    -0.78950
O1501       O  0.56371867  0.76619691  0.95838374    -0.90580
O1502       O  0.67169593  0.83702713  0.53606601    -0.76550
O1503       O  0.61033895  0.76232558  0.54985882    -0.86040
O1504       O  0.64072908  0.78006593  0.49317071    -0.85730
O1505       O  0.53997500  0.70660161  0.52870115    -0.72480
O1506       O  0.57441150  0.72007899  0.97952684    -0.84620
Zr1507     Zr  0.61781425  0.66457551  0.52489300     2.26420
Zr1508     Zr  0.57156429  0.70098297  0.56935405     2.06270
Zr1509     Zr  0.63273979  0.73015347  0.96431879     2.10050
Zr1510     Zr  0.66978303  0.77654820  0.53499667     1.78760
O1511       O  0.62703163  0.69615136  0.92229826    -0.93420
O1512       O  0.69748604  0.80233840  0.57965847    -0.41230
O1513       O  0.65981005  0.72620021  0.50676190    -0.77860
O1514       O  0.63213871  0.71433942  0.55625503    -0.96550
O1515       O  0.55871441  0.65370775  0.53762396    -0.89850
O1516       O  0.59011100  0.66871544  0.48241816    -0.92700
C1517       C  0.65311469  0.85153557  0.52553740     1.01060
C1518       C  0.57227229  0.75659092  0.93519310     1.13990
C1519       C  0.55689958  0.76810248  0.57815118     1.04770
O1520       O  0.60797326  0.72697898  0.61109073    -0.94850
O1521       O  0.56276956  0.64269965  0.58974014    -0.90600
O1522       O  0.60459620  0.63196610  0.56900853    -0.83740
C1523       C  0.58073507  0.62530002  0.58801680     1.11410
O1524       O  0.49103164  0.67612363  0.46958589    -0.96830
Zr1525     Zr  0.53121197  0.66004213  0.49617048     1.88940
O1526       O  0.57094756  0.59942702  0.51796427    -0.73470
O1527       O  0.52191526  0.66877587  0.60380780    -0.52740
O1528       O  0.47284469  0.63053767  0.52190819    -0.97410
O1529       O  0.51212224  0.62977377  0.95132399    -0.54630
O1530       O  0.51773319  0.59749692  0.50469584    -0.73990
C1531       C  0.53631973  0.58209441  0.51211272     0.98350
O1532       O  0.66832925  0.65590413  0.54179900    -0.62810
O1533       O  0.68151081  0.78515711  0.94003075    -0.57610
O1534       O  0.64830052  0.65612740  0.48608334    -0.94300
O1535       O  0.68187226  0.71335183  0.96750834    -0.92720
O1536       O  0.71969370  0.81493692  0.50219351    -0.93080
O1537       O  0.72471642  0.77217940  0.54482737    -0.91860
C1538       C  0.67870629  0.68214118  0.97597723     1.17200
H1539       H  0.65452391  0.80381470  0.98339689     0.33140
H1540       H  0.64470768  0.71168873  0.57238357     0.43990
H1541       H  0.58721482  0.64992936  0.96959932     0.37520
H1542       H  0.51622320  0.70377231  0.53316343     0.34000
H1543       H  0.69928113  0.78236660  0.59003466     0.25790
H1544       H  0.52664781  0.68706083  0.61839828     0.31720
H1545       H  0.45725564  0.60670583  0.51253687     0.37630
H1546       H  0.73362880  0.83938708  0.51108199     0.32090
H1547       H  0.70174351  0.77968309  0.93763504     0.30970
H1548       H  0.64870128  0.71344630  0.91066568     0.32650
H1549       H  0.48714700  0.60809132  0.95487361     0.31620
H1550       H  0.71511607  0.74564074  0.54999251     0.35620
H1551       H  0.69088669  0.67715635  0.53347835     0.28350
H1552       H  0.54178892  0.80761747  0.50922338     0.32580
H1553       H  0.46598255  0.65394896  0.47111592     0.35430
H1554       H  0.67198643  0.78436962  0.92092449     0.28040
H1555       H  0.67094386  0.66139611  0.56193529     0.40920
H1556       H  0.60250393  0.70510075  0.62323528     0.30970
H1557       H  0.72331588  0.82179736  0.57535683     0.38590
H1558       H  0.52784130  0.61867626  0.94823825     0.30440
H1559       H  0.49913278  0.66472996  0.59438105     0.30500
H1560       H  0.51260054  0.76599483  0.51647622     0.30770
Zr1561     Zr  0.23112133  0.81146909  0.50856191     2.17510
O1562       O  0.22153677  0.74969942  0.50025048    -0.51590
O1563       O  0.16601993  0.78807883  0.51540854    -0.74790
O1564       O  0.21052240  0.78162903  0.55603484    -0.81580
O1565       O  0.24972293  0.85586484  0.93381778    -0.83320
O1566       O  0.26303862  0.79572539  0.57735039    -0.78950
O1567       O  0.22384215  0.80003878  0.95796628    -0.90580
O1568       O  0.16469526  0.82688424  0.54712823    -0.76550
O1569       O  0.23800400  0.84147886  0.55103935    -0.86040
O1570       O  0.21870034  0.86092461  0.49735919    -0.85730
O1571       O  0.29270705  0.83017469  0.52447778    -0.72480
O1572       O  0.27802323  0.85598888  0.97768956    -0.84620
Zr1573     Zr  0.33248986  0.95090099  0.52651293     2.26420
Zr1574     Zr  0.29882157  0.86127402  0.56734736     2.06270
Zr1575     Zr  0.26719225  0.90601819  0.96687679     2.10050
Zr1576     Zr  0.22264833  0.88755744  0.54155575     1.78760
O1577       O  0.29881046  0.93613105  0.92313096    -0.93420
O1578       O  0.20566166  0.88393200  0.59057767    -0.41230
O1579       O  0.27091953  0.93195053  0.51121640    -0.77860
O1580       O  0.28480797  0.90997074  0.55893137    -0.96550
O1581       O  0.34485525  0.90186985  0.53506369    -0.89850
O1582       O  0.32848142  0.92460492  0.48229007    -0.92700
C1583       C  0.14976930  0.79547540  0.53470398     1.01060
C1584       C  0.23418951  0.82002478  0.93499395     1.13990
C1585       C  0.22823636  0.78125828  0.57813198     1.04770
O1586       O  0.27484757  0.85951098  0.61389732    -0.94850
O1587       O  0.34838623  0.91044177  0.59266312    -0.90600
O1588       O  0.36478721  0.96551049  0.57022419    -0.83740
C1589       C  0.36626310  0.94608399  0.59088110     1.11410
O1590       O  0.32534352  0.82105723  0.46272695    -0.96830
Zr1591     Zr  0.33864095  0.87350956  0.49180211     1.88940
O1592       O  0.39696316  0.97273098  0.51594924    -0.73470
O1593       O  0.34016188  0.84000816  0.58464242    -0.52740
O1594       O  0.36953575  0.84294938  0.51368234    -0.97410
O1595       O  0.36787364  0.89136663  0.94570195    -0.54630
O1596       O  0.40044867  0.92364407  0.49988806    -0.73990
C1597       C  0.41506508  0.95717762  0.50797015     0.98350
O1598       O  0.33706370  0.00564076  0.54797143    -0.62810
O1599       O  0.21186558  0.90303285  0.94742220    -0.57610
O1600       O  0.34103812  0.99632959  0.49064055    -0.94300
O1601       O  0.28553760  0.97308836  0.97078552    -0.92720
O1602       O  0.17957922  0.89990188  0.51551994    -0.93080
O1603       O  0.22313568  0.94234985  0.55868450    -0.91860
C1604       C  0.31544058  0.00092380  0.98013934     1.17200
H1605       H  0.19473325  0.85173796  0.98896741     0.33140
H1606       H  0.28757065  0.92275981  0.57609316     0.43990
H1607       H  0.34674224  0.94258808  0.96937885     0.37520
H1608       H  0.29545547  0.80862653  0.52753983     0.34000
H1609       H  0.17831922  0.87079578  0.59087030     0.25790
H1610       H  0.32963284  0.82762099  0.60298376     0.31720
H1611       H  0.39370713  0.85396524  0.50395553     0.37630
H1612       H  0.15614895  0.88637887  0.52627479     0.32090
H1613       H  0.22076313  0.92770007  0.93814164     0.30970
H1614       H  0.27880024  0.93214066  0.91006333     0.32650
H1615       H  0.39009043  0.88882620  0.94747333     0.31620
H1616       H  0.24963166  0.96082047  0.56102570     0.35620
H1617       H  0.31648410  0.00790257  0.53980451     0.28350
H1618       H  0.19777001  0.73673569  0.49022868     0.32580
H1619       H  0.34824701  0.81965349  0.46245884     0.35430
H1620       H  0.20472844  0.88560229  0.93185818     0.28040
H1621       H  0.32928236  0.99822407  0.56769988     0.40920
H1622       H  0.28747032  0.85005237  0.62632085     0.30970
H1623       H  0.21191084  0.86598128  0.59935245     0.38590
H1624       H  0.37784408  0.91851720  0.94364944     0.30440
H1625       H  0.33603134  0.81955127  0.57236267     0.30500
H1626       H  0.21616540  0.73709507  0.51889587     0.30770
Zr1627     Zr  0.75742205  0.18801202  0.51846815     2.17510
O1628       O  0.76404232  0.24718682  0.53175784    -0.51590
O1629       O  0.82219692  0.21059839  0.50953285    -0.74790
O1630       O  0.77289166  0.19810203  0.56885517    -0.81580
O1631       O  0.72100676  0.20641881  0.95610568    -0.83320
O1632       O  0.75146110  0.14124686  0.59070538    -0.78950
O1633       O  0.77549645  0.23074837  0.97678927    -0.90580
O1634       O  0.82540034  0.17083474  0.97974979    -0.76550
O1635       O  0.76910304  0.13778923  0.52736404    -0.86040
O1636       O  0.75337308  0.16022461  0.97437031    -0.85730
O1637       O  0.70855916  0.14344599  0.54888565    -0.72480
O1638       O  0.69629468  0.16810905  0.00072290    -0.84620
Zr1639     Zr  0.65620704  0.04817297  0.99771397     2.26420
Zr1640     Zr  0.71997320  0.09260572  0.55722843     2.06270
Zr1641     Zr  0.69276424  0.13967717  0.95702050     2.10050
Zr1642     Zr  0.76626069  0.11235161  0.98280358     1.78760
O1643       O  0.65332736  0.15986465  0.93430902    -0.93420
O1644       O  0.80848266  0.09703949  0.50702699    -0.41230
O1645       O  0.70437570  0.08943973  0.96551062    -0.77860
O1646       O  0.71815706  0.06817588  0.51244314    -0.96550
O1647       O  0.65840074  0.07309994  0.54196409    -0.89850
O1648       O  0.64494091  0.09793993  0.98809625    -0.92700
C1649       C  0.83955792  0.20225477  0.49185698     1.01060
C1650       C  0.75593242  0.22687798  0.95484598     1.13990
C1651       C  0.76669929  0.17687647  0.59094494     1.04770
O1652       O  0.76935797  0.08585229  0.57847518    -0.94850
O1653       O  0.70111354  0.02573177  0.55789020    -0.90600
O1654       O  0.65436550  0.99859256  0.52661938    -0.83740
C1655       C  0.67650739  0.99732304  0.54462814     1.11410
O1656       O  0.65677458  0.17777314  0.55760158    -0.96830
Zr1657     Zr  0.64872992  0.12437802  0.53192988     1.88940
O1658       O  0.59180136  0.02481007  0.01034640    -0.73470
O1659       O  0.68224219  0.06758590  0.59938983    -0.52740
O1660       O  0.62425737  0.10534076  0.57930792    -0.97410
O1661       O  0.61429737  0.15173139  0.01092004    -0.54630
O1662       O  0.58713582  0.07336475  0.52590163    -0.73990
C1663       C  0.57310013  0.03973013  0.01831077     0.98350
O1664       O  0.64308646  0.98877728  0.97895719    -0.62810
O1665       O  0.72236721  0.14542989  0.91206192    -0.57610
O1666       O  0.62813929  0.03707123  0.95281538    -0.94300
O1667       O  0.64866366  0.09144244  0.92788434    -0.92720
O1668       O  0.78277046  0.12057152  0.93338222    -0.93080
O1669       O  0.76543721  0.05851187  0.96325372    -0.91860
C1670       C  0.62987481  0.05602318  0.93089800     1.17200
H1671       H  0.77174693  0.17606088  0.96075347     0.33140
H1672       H  0.72290933  0.04779517  0.51264912     0.43990
H1673       H  0.62129091  0.08977885  0.97944275     0.37520
H1674       H  0.70758573  0.15431802  0.56610426     0.34000
H1675       H  0.82864114  0.10363710  0.49337407     0.25790
H1676       H  0.69915178  0.06677863  0.61357842     0.31720
H1677       H  0.59869406  0.10080194  0.57833401     0.37630
H1678       H  0.80960100  0.12955603  0.93296770     0.32090
H1679       H  0.71452910  0.15975477  0.89984250     0.30970
H1680       H  0.62850820  0.14348357  0.94256394     0.32650
H1681       H  0.59094883  0.14074903  0.02177935     0.31620
H1682       H  0.73896155  0.04060528  0.96010807     0.35620
H1683       H  0.61649500  0.97538326  0.97426732     0.28350
H1684       H  0.78821195  0.26047848  0.54121565     0.32580
H1685       H  0.63184532  0.17113107  0.56433105     0.35430
H1686       H  0.74913807  0.16208186  0.91476309     0.28040
H1687       H  0.65628988  0.99493758  0.96076932     0.40920
H1688       H  0.79243219  0.10774819  0.57140284     0.30970
H1689       H  0.82005719  0.11593532  0.52155514     0.38590
H1690       H  0.60680600  0.14041120  0.99237993     0.30440
H1691       H  0.67795056  0.08771764  0.60536887     0.30500
H1692       H  0.74551495  0.24061171  0.54681427     0.30770
Zr1693     Zr  0.80395976  0.22991934  0.76985797     2.17510
O1694       O  0.74307996  0.22010855  0.78143853    -0.51590
O1695       O  0.78021069  0.16424534  0.76139560    -0.74790
O1696       O  0.77232049  0.21144028  0.72407357    -0.81580
O1697       O  0.84969532  0.24727836  0.84252392    -0.83320
O1698       O  0.78931229  0.26584636  0.70239115    -0.78950
O1699       O  0.79339579  0.22311634  0.82176891    -0.90580
O1700       O  0.82062052  0.16410665  0.73005916    -0.76550
O1701       O  0.83427616  0.23864152  0.72621576    -0.86040
O1702       O  0.85300866  0.21700485  0.77891531    -0.85730
O1703       O  0.82332428  0.29245354  0.75236406    -0.72480
O1704       O  0.84834563  0.27682952  0.79896943    -0.84620
Zr1705     Zr  0.94270983  0.33338957  0.74804645     2.26420
Zr1706     Zr  0.85496612  0.30043434  0.70851647     2.06270
Zr1707     Zr  0.89783069  0.26531643  0.80782052     2.10050
Zr1708     Zr  0.88008942  0.22290926  0.73406436     1.78760
O1709       O  0.92500739  0.29257334  0.85235272    -0.93420
O1710       O  0.87491553  0.20683235  0.68507274    -0.41230
O1711       O  0.92447352  0.27084657  0.76313686    -0.77860
O1712       O  0.90305788  0.28610749  0.71637221    -0.96550
O1713       O  0.89434058  0.34617398  0.74000528    -0.89850
O1714       O  0.91587260  0.32756038  0.79260726    -0.92700
C1715       C  0.78886487  0.14846143  0.74250369     1.01060
C1716       C  0.81447915  0.23294583  0.84369690     1.13990
C1717       C  0.77324725  0.23059855  0.70208518     1.04770
O1718       O  0.84629117  0.27766677  0.66119512    -0.94850
O1719       O  0.90627735  0.34477345  0.67859311    -0.90600
O1720       O  0.95838623  0.36652412  0.70407926    -0.83740
C1721       C  0.94133278  0.36566912  0.68163619     1.11410
O1722       O  0.81274552  0.32325171  0.81405064    -0.96830
Zr1723     Zr  0.86547005  0.33817158  0.78398237     1.88940
O1724       O  0.96326503  0.39835890  0.75673434    -0.73470
O1725       O  0.83897269  0.34738316  0.69468322    -0.52740
O1726       O  0.83460844  0.36935299  0.76310484    -0.97410
O1727       O  0.88278249  0.36647725  0.82961738    -0.54630
O1728       O  0.91495241  0.40108342  0.77486280    -0.73990
C1729       C  0.94803437  0.41651120  0.76525604     0.98350
O1730       O  0.99940778  0.34083814  0.72760639    -0.62810
O1731       O  0.89614768  0.20835696  0.82407283    -0.57610
O1732       O  0.98738473  0.34390192  0.78349167    -0.94300
O1733       O  0.96495789  0.28824044  0.80552510    -0.92720
O1734       O  0.89369693  0.17980829  0.75969905    -0.93080
O1735       O  0.93406475  0.22390128  0.71449794    -0.91860
C1736       C  0.99223762  0.31961695  0.79674232     1.17200
H1737       H  0.84382569  0.19253063  0.78736249     0.33140
H1738       H  0.91621963  0.28928178  0.69910257     0.43990
H1739       H  0.93330914  0.34546416  0.80533361     0.37520
H1740       H  0.80202071  0.29540888  0.74986308     0.34000
H1741       H  0.86598314  0.17979102  0.68532244     0.25790
H1742       H  0.82817599  0.34014896  0.67585380     0.31720
H1743       H  0.84532437  0.39341895  0.77258284     0.37630
H1744       H  0.87993451  0.15614042  0.74975245     0.32090
H1745       H  0.91483919  0.21618716  0.83901287     0.30970
H1746       H  0.93056109  0.27445272  0.86174645     0.32650
H1747       H  0.87965948  0.38854129  0.82797533     0.31620
H1748       H  0.95343454  0.25053543  0.71396323     0.35620
H1749       H  0.00374526  0.32223299  0.73761184     0.28350
H1750       H  0.72962216  0.19477951  0.79010063     0.32580
H1751       H  0.81168108  0.34645489  0.81498004     0.35430
H1752       H  0.87217073  0.19368426  0.83395810     0.28040
H1753       H  0.99264193  0.33106030  0.70854208     0.40920
H1754       H  0.86601602  0.27154380  0.65846158     0.30970
H1755       H  0.85370657  0.20893507  0.67812924     0.38590
H1756       H  0.90981557  0.37705915  0.83086071     0.30440
H1757       H  0.81780018  0.34219517  0.70684116     0.30500
H1758       H  0.73083803  0.21786494  0.76325236     0.30770
Zr1759     Zr  0.17391802  0.76593946  0.76214924     2.17510
O1760       O  0.23547479  0.77714501  0.75111541    -0.51590
O1761       O  0.19483559  0.83094706  0.77181344    -0.74790
O1762       O  0.18894555  0.78254488  0.71138132    -0.81580
O1763       O  0.18323245  0.71949470  0.82412442    -0.83320
O1764       O  0.13485590  0.76254302  0.68771030    -0.78950
O1765       O  0.21174053  0.77684521  0.80540252    -0.90580
O1766       O  0.14911152  0.83373944  0.79496455    -0.76550
O1767       O  0.12459236  0.77735899  0.75015114    -0.86040
O1768       O  0.14147102  0.75932019  0.80500266    -0.85730
O1769       O  0.13306613  0.71790864  0.73085007    -0.72480
O1770       O  0.15180239  0.70332081  0.78031567    -0.84620
Zr1771     Zr  0.03324245  0.66111007  0.77821005     2.26420
Zr1772     Zr  0.08293959  0.72908892  0.71945043     2.06270
Zr1773     Zr  0.11785158  0.69659288  0.82257837     2.10050
Zr1774     Zr  0.09384949  0.77175723  0.79316166     1.78760
O1775       O  0.13682286  0.66187971  0.85378080    -0.93420
O1776       O  0.07675511  0.81119732  0.76596100    -0.41230
O1777       O  0.06945948  0.70847003  0.81082670    -0.77860
O1778       O  0.05278371  0.72400271  0.76282449    -0.96550
O1779       O  0.06373842  0.66693145  0.73540641    -0.89850
O1780       O  0.08215963  0.65051750  0.79014741    -0.92700
C1781       C  0.18242297  0.84850971  0.78569099     1.01060
C1782       C  0.20623154  0.75401917  0.82618950     1.13990
C1783       C  0.17015528  0.77741845  0.68854400     1.04770
O1784       O  0.07673950  0.78000358  0.69906182    -0.94850
O1785       O  0.01498515  0.70436966  0.71637871    -0.90600
O1786       O  0.99480035  0.64896162  0.73777158    -0.83740
C1787       C  0.98831605  0.67279990  0.72570988     1.11410
O1788       O  0.16963643  0.66702244  0.72496291    -0.96830
Zr1789     Zr  0.11334092  0.65685210  0.74788552     1.88940
O1790       O  0.01192284  0.59621444  0.76867706    -0.73470
O1791       O  0.06442527  0.69612971  0.67576540    -0.52740
O1792       O  0.10111447  0.63486689  0.70023950    -0.97410
O1793       O  0.13876641  0.62219539  0.77178441    -0.54630
O1794       O  0.06133158  0.59409938  0.75207293    -0.73990
C1795       C  0.02752368  0.57838846  0.76016013     0.98350
O1796       O  0.97848043  0.65770513  0.79866567    -0.62810
O1797       O  0.11036700  0.72794114  0.86224838    -0.57610
O1798       O  0.01539945  0.62324086  0.81981733    -0.94300
O1799       O  0.06659206  0.64250407  0.84622859    -0.92720
O1800       O  0.09893113  0.78978149  0.84165364    -0.93080
O1801       O  0.03867205  0.76873682  0.81231816    -0.91860
C1802       C  0.03199407  0.62090895  0.84160120     1.17200
H1803       H  0.15673014  0.77719078  0.81863707     0.33140
H1804       H  0.03175083  0.72747318  0.76103831     0.43990
H1805       H  0.07407468  0.62611637  0.79829380     0.37520
H1806       H  0.14570438  0.71763263  0.71424382     0.34000
H1807       H  0.08034584  0.83095235  0.77881924     0.25790
H1808       H  0.06731730  0.71520079  0.66155291     0.31720
H1809       H  0.09699580  0.60923837  0.70164076     0.37630
H1810       H  0.10457179  0.81595332  0.84071468     0.32090
H1811       H  0.10935365  0.71308403  0.87908559     0.30970
H1812       H  0.12763313  0.66263483  0.87259015     0.32650
H1813       H  0.12603795  0.59728758  0.76348964     0.31620
H1814       H  0.02123595  0.74185288  0.81566099     0.35620
H1815       H  0.98472832  0.66403022  0.81849396     0.28350
H1816       H  0.24869975  0.80244497  0.74238579     0.32580
H1817       H  0.16468934  0.64208278  0.71967707     0.35430
H1818       H  0.13335869  0.75221317  0.86381312     0.28040
H1819       H  0.97786841  0.67948982  0.79041378     0.40920
H1820       H  0.10060580  0.80271292  0.70273636     0.30970
H1821       H  0.09674966  0.82420509  0.75188185     0.38590
H1822       H  0.12888065  0.61785149  0.79109727     0.30440
H1823       H  0.08438294  0.69082759  0.67141712     0.30500
H1824       H  0.23185947  0.76018574  0.73576987     0.30770
Zr1825     Zr  0.81022564  0.58275300  0.51934356     2.17510
O1826       O  0.74907573  0.53060211  0.53093067    -0.51590
O1827       O  0.79252310  0.62979680  0.51759322    -0.74790
O1828       O  0.79827831  0.58191278  0.57005334    -0.81580
O1829       O  0.79276345  0.53291572  0.95833700    -0.83320
O1830       O  0.85401282  0.61177335  0.59178707    -0.78950
O1831       O  0.77025355  0.56521418  0.97716306    -0.90580
O1832       O  0.83228991  0.67536017  0.98757313    -0.76550
O1833       O  0.86159970  0.64227095  0.53043342    -0.86040
O1834       O  0.84014333  0.61199848  0.97570387    -0.85730
O1835       O  0.85128497  0.57116062  0.54801880    -0.72480
O1836       O  0.82826944  0.54194159  0.99857992    -0.84620
Zr1837     Zr  0.94758521  0.61790327  0.99484490     2.26420
Zr1838     Zr  0.90365374  0.63122359  0.55805887     2.06270
Zr1839     Zr  0.85863376  0.57193439  0.95513045     2.10050
Zr1840     Zr  0.88900578  0.67097058  0.98662064     1.78760
O1841       O  0.83156500  0.51797594  0.92550163    -0.93420
O1842       O  0.90808890  0.72432072  0.51615667    -0.41230
O1843       O  0.90945455  0.63212925  0.96503780    -0.77860
O1844       O  0.93053570  0.65993860  0.51398993    -0.96550
O1845       O  0.92096852  0.58972605  0.53880118    -0.89850
O1846       O  0.89657219  0.55874715  0.98471944    -0.92700
C1847       C  0.80145522  0.65808530  0.50122756     1.01060
C1848       C  0.77349119  0.54851506  0.95603556     1.13990
C1849       C  0.81853643  0.59329962  0.59220222     1.04770
O1850       O  0.91422733  0.68739207  0.58071187    -0.94850
O1851       O  0.97135874  0.67350971  0.56101269    -0.90600
O1852       O  0.99605034  0.65603341  0.52659031    -0.83740
C1853       C  0.99910570  0.67659419  0.54705201     1.11410
O1854       O  0.81248639  0.48110326  0.55004786    -0.96830
Zr1855     Zr  0.86864772  0.53094695  0.52799299     1.88940
O1856       O  0.96851217  0.57350085  0.00473420    -0.73470
O1857       O  0.92289633  0.61007350  0.59941691    -0.52740
O1858       O  0.87979537  0.51644615  0.57547975    -0.97410
O1859       O  0.84395438  0.47344349  0.00238936    -0.54630
O1860       O  0.92038786  0.52100258  0.52354465    -0.73990
C1861       C  0.95365874  0.53974773  0.01430250     0.98350
O1862       O  0.00281188  0.66729626  0.97127646    -0.62810
O1863       O  0.85755674  0.60550967  0.91272482    -0.57610
O1864       O  0.95941290  0.59853884  0.95139941    -0.94300
O1865       O  0.90511492  0.56689667  0.92868222    -0.92720
O1866       O  0.88277287  0.69165880  0.93983260    -0.93080
O1867       O  0.94391890  0.72450104  0.96631621    -0.91860
C1868       C  0.93985792  0.57917963  0.93108520     1.17200
H1869       H  0.82536192  0.61713924  0.96299236     0.33140
H1870       H  0.95208405  0.68414296  0.51590602     0.43990
H1871       H  0.90349839  0.54242774  0.97611770     0.37520
H1872       H  0.83922850  0.55712094  0.56483921     0.34000
H1873       H  0.90748234  0.74346122  0.50375736     0.25790
H1874       H  0.92495596  0.62721176  0.61415477     0.31720
H1875       H  0.88445797  0.49548926  0.57368153     0.37630
H1876       H  0.87696290  0.71165829  0.94276528     0.32090
H1877       H  0.83653122  0.58716700  0.90169580     0.30970
H1878       H  0.82808140  0.52706839  0.90705080     0.32650
H1879       H  0.86523776  0.47520864  0.99213779     0.31620
H1880       H  0.96413640  0.72968172  0.97953642     0.35620
H1881       H  0.99490939  0.66912937  0.95204846     0.28350
H1882       H  0.73608205  0.54184273  0.54014642     0.32580
H1883       H  0.81742594  0.46050026  0.55399224     0.35430
H1884       H  0.85000503  0.62331866  0.91859595     0.28040
H1885       H  0.00733498  0.69066018  0.97975388     0.40920
H1886       H  0.89155010  0.68862746  0.57717631     0.30970
H1887       H  0.88718058  0.71666218  0.52931031     0.38590
H1888       H  0.82848052  0.47577305  0.98763395     0.30440
H1889       H  0.90103741  0.58590761  0.60493950     0.30500
H1890       H  0.75323807  0.51635629  0.54601862     0.30770
Zr1891     Zr  0.17889344  0.42113841  0.50382307     2.17510
O1892       O  0.23941564  0.47376913  0.49141415    -0.51590
O1893       O  0.20406224  0.38050013  0.51530441    -0.74790
O1894       O  0.21047803  0.43602871  0.54995024    -0.81580
O1895       O  0.13342690  0.39173418  0.93117441    -0.83320
O1896       O  0.19099182  0.47096842  0.56967641    -0.78950
O1897       O  0.18960283  0.42535744  0.95165678    -0.90580
O1898       O  0.16308606  0.33754086  0.54644086    -0.76550
O1899       O  0.14827881  0.39827748  0.54768816    -0.86040
O1900       O  0.13089236  0.35813639  0.49654811    -0.85730
O1901       O  0.15742521  0.46244918  0.51866320    -0.72480
O1902       O  0.13411431  0.42234037  0.97331909    -0.84620
Zr1903     Zr  0.03849445  0.37988259  0.52405813     2.26420
Zr1904     Zr  0.12563805  0.43751882  0.56276035     2.06270
Zr1905     Zr  0.08568965  0.36019251  0.96628240     2.10050
Zr1906     Zr  0.10355080  0.33569291  0.54163830     1.78760
O1907       O  0.05937577  0.35916843  0.92054923    -0.93420
O1908       O  0.11144623  0.32512154  0.59090998    -0.41230
O1909       O  0.05871906  0.33753633  0.51117398    -0.77860
O1910       O  0.07889113  0.37398095  0.55704424    -0.96550
O1911       O  0.08562651  0.44217800  0.53009012    -0.89850
O1912       O  0.06536346  0.40223933  0.47913763    -0.92700
C1913       C  0.19507602  0.35480735  0.53441012     1.01060
C1914       C  0.16854210  0.41344932  0.92970089     1.13990
C1915       C  0.20853995  0.45347549  0.57119379     1.04770
O1916       O  0.13251346  0.42275112  0.61119150    -0.94850
O1917       O  0.07376336  0.42980071  0.59099448    -0.90600
O1918       O  0.02113036  0.39438279  0.56727847    -0.83740
C1919       C  0.03844533  0.41296490  0.58854823     1.11410
O1920       O  0.16739931  0.50602896  0.45632142    -0.96830
Zr1921     Zr  0.11458190  0.46445513  0.48593743     1.88940
O1922       O  0.01755293  0.42437137  0.51512655    -0.73470
O1923       O  0.14023128  0.50027756  0.57377312    -0.52740
O1924       O  0.14251179  0.52604682  0.50575710    -0.97410
O1925       O  0.09781502  0.47462010  0.93893806    -0.54630
O1926       O  0.06339827  0.47495994  0.49243341    -0.73990
C1927       C  0.03133220  0.45721470  0.50396326     0.98350
O1928       O  0.98209205  0.32789590  0.54435550    -0.62810
O1929       O  0.08876679  0.30546993  0.95352569    -0.57610
O1930       O  0.99436446  0.34519555  0.48900700    -0.94300
O1931       O  0.01876106  0.31506885  0.96730987    -0.92720
O1932       O  0.09008904  0.27907476  0.51820922    -0.93080
O1933       O  0.04999743  0.28189237  0.56292926    -0.91860
C1934       C  0.99091506  0.31762571  0.97544527     1.17200
H1935       H  0.14064589  0.34346723  0.98907505     0.33140
H1936       H  0.06594851  0.36357623  0.57454125     0.43990
H1937       H  0.04772070  0.40198874  0.96593067     0.37520
H1938       H  0.17822649  0.48726821  0.52062686     0.34000
H1939       H  0.11404573  0.30271612  0.59146439     0.25790
H1940       H  0.14874317  0.50333825  0.59337770     0.31720
H1941       H  0.13129979  0.53882886  0.49541872     0.37630
H1942       H  0.10422986  0.26953621  0.52869609     0.32090
H1943       H  0.06972927  0.29350500  0.93901680     0.30970
H1944       H  0.05291219  0.33476110  0.91294618     0.32650
H1945       H  0.09898476  0.49898723  0.93949198     0.31620
H1946       H  0.02991330  0.28780242  0.56127915     0.35620
H1947       H  0.97872048  0.30552503  0.53492126     0.28350
H1948       H  0.25405935  0.46241734  0.48554987     0.32580
H1949       H  0.16687002  0.52953046  0.45435489     0.35430
H1950       H  0.11254429  0.31543676  0.94338613     0.28040
H1951       H  0.98861024  0.32450250  0.56370326     0.40920
H1952       H  0.13197461  0.39871994  0.61061281     0.30970
H1953       H  0.13636112  0.34571496  0.59555091     0.38590
H1954       H  0.07117621  0.45637343  0.93719188     0.30440
H1955       H  0.16271708  0.51698606  0.56270096     0.30500
H1956       H  0.25044472  0.48549540  0.50934722     0.30770
Zr1957     Zr  0.22682723  0.42329709  0.75544258     2.17510
O1958       O  0.21936150  0.47491441  0.73838638    -0.51590
O1959       O  0.16183854  0.37897447  0.76267298    -0.74790
O1960       O  0.21404519  0.41781881  0.70456325    -0.81580
O1961       O  0.26105212  0.47964762  0.81472818    -0.83320
O1962       O  0.23931853  0.38571948  0.68595188    -0.78950
O1963       O  0.20671136  0.44725841  0.79480052    -0.90580
O1964       O  0.15765834  0.33744820  0.79626629    -0.76550
O1965       O  0.21663271  0.36168758  0.74958036    -0.86040
O1966       O  0.22844927  0.39925032  0.80123235    -0.85730
O1967       O  0.27775514  0.42923751  0.72797935    -0.72480
O1968       O  0.28695391  0.46607089  0.77391265    -0.84620
Zr1969     Zr  0.32773423  0.38726049  0.78574856     2.26420
Zr1970     Zr  0.26773393  0.36722200  0.72273989     2.06270
Zr1971     Zr  0.28801960  0.44081822  0.81935707     2.10050
Zr1972     Zr  0.21689553  0.33857910  0.79565855     1.78760
O1973       O  0.31992344  0.49784577  0.84532669    -0.93420
O1974       O  0.17553331  0.28170949  0.77151996    -0.41230
O1975       O  0.27738399  0.37901247  0.81485408    -0.77860
O1976       O  0.26723772  0.34399502  0.76896138    -0.96550
O1977       O  0.32785970  0.41017331  0.73979239    -0.89850
O1978       O  0.33756017  0.44816953  0.79105430    -0.92700
C1979       C  0.14387653  0.35405476  0.78177226     1.01060
C1980       C  0.22619761  0.46429743  0.81620359     1.13990
C1981       C  0.22286162  0.40473208  0.68355025     1.04770
O1982       O  0.21872222  0.30969255  0.70369277    -0.94850
O1983       O  0.29043866  0.32215913  0.72516651    -0.90600
O1984       O  0.33496433  0.34309903  0.75843948    -0.83740
C1985       C  0.31565923  0.32005739  0.73957505     1.11410
O1986       O  0.33072253  0.51679102  0.71644325    -0.96830
Zr1987     Zr  0.33653323  0.47102603  0.74575030     1.88940
O1988       O  0.39273672  0.42944953  0.77445000    -0.73470
O1989       O  0.30664410  0.38025291  0.68159117    -0.52740
O1990       O  0.36300882  0.47664264  0.69949261    -0.97410
O1991       O  0.36949893  0.53287252  0.76531904    -0.54630
O1992       O  0.39786664  0.48239511  0.75515483    -0.73990
C1993       C  0.41174265  0.46325549  0.76512492     0.98350
O1994       O  0.33421239  0.34020045  0.81306583    -0.62810
O1995       O  0.25571482  0.41169871  0.86319923    -0.57610
O1996       O  0.35635650  0.40951170  0.83008036    -0.94300
O1997       O  0.33786542  0.44772000  0.84800385    -0.92720
O1998       O  0.19778817  0.32737417  0.84457724    -0.93080
O1999       O  0.21672618  0.28472623  0.81727381    -0.91860
C2000       C  0.35604523  0.43066581  0.84880946     1.17200
H2001       H  0.20940015  0.39636008  0.81389190     0.33140
H2002       H  0.26347783  0.31912325  0.76937336     0.43990
H2003       H  0.36091242  0.46479410  0.79954096     0.37520
H2004       H  0.27970852  0.44155701  0.71022642     0.34000
H2005       H  0.15477884  0.26731561  0.78478623     0.25790
H2006       H  0.29069254  0.36100437  0.66827075     0.31720
H2007       H  0.38878581  0.49747251  0.70070152     0.37630
H2008       H  0.17096597  0.30915343  0.84431651     0.32090
H2009       H  0.26388132  0.43249208  0.87613681     0.30970
H2010       H  0.33772144  0.51660650  0.83175384     0.32650
H2011       H  0.39398397  0.54542254  0.75595974     0.31620
H2012       H  0.24258004  0.29422464  0.82316035     0.35620
H2013       H  0.32618193  0.34097795  0.83230228     0.28350
H2014       H  0.19562807  0.46325378  0.72826362     0.32580
H2015       H  0.35618857  0.53561531  0.71061922     0.35430
H2016       H  0.22930923  0.40291546  0.85995974     0.28040
H2017       H  0.31439219  0.31589564  0.80645999     0.40920
H2018       H  0.19613150  0.31151234  0.70527794     0.30970
H2019       H  0.16466595  0.28961896  0.75626214     0.38590
H2020       H  0.37468657  0.52869646  0.78488628     0.30440
H2021       H  0.30971522  0.40378921  0.67337871     0.30500
H2022       H  0.23847927  0.48755499  0.72363293     0.30770
Zr2023     Zr  0.75147428  0.57093626  0.76778289     2.17510
O2024       O  0.75820444  0.51741993  0.78004110    -0.51590
O2025       O  0.81671748  0.61190873  0.75911286    -0.74790
O2026       O  0.77033249  0.55590922  0.72347957    -0.81580
O2027       O  0.73937749  0.60121365  0.83846202    -0.83320
O2028       O  0.71659431  0.52197185  0.70219655    -0.78950
O2029       O  0.76260964  0.56815814  0.81839616    -0.90580
O2030       O  0.82346665  0.65880634  0.72988201    -0.76550
O2031       O  0.74584822  0.59466065  0.72352343    -0.86040
O2032       O  0.76683432  0.63404819  0.77501521    -0.85730
O2033       O  0.68912997  0.53005069  0.75248191    -0.72480
O2034       O  0.70578036  0.56959784  0.79819589    -0.84620
Zr2035     Zr  0.65520500  0.61491915  0.74470091     2.26420
Zr2036     Zr  0.68419119  0.55530132  0.70787812     2.06270
Zr2037     Zr  0.71976699  0.63211344  0.80460238     2.10050
Zr2038     Zr  0.76378363  0.65739245  0.72962370     1.78760
O2039       O  0.69410533  0.63001386  0.85054133    -0.93420
O2040       O  0.78559594  0.66660087  0.68140093    -0.41230
O2041       O  0.71729072  0.65606102  0.75944121    -0.77860
O2042       O  0.70124235  0.61920268  0.71274392    -0.96550
O2043       O  0.63945834  0.55226810  0.73930908    -0.89850
O2044       O  0.65776702  0.59179098  0.79004374    -0.92700
C2045       C  0.83643079  0.64034812  0.74300652     1.01060
C2046       C  0.75381023  0.58025626  0.83993701     1.13990
C2047       C  0.75165581  0.53920258  0.70174094     1.04770
O2048       O  0.70685668  0.57333582  0.66003641    -0.94850
O2049       O  0.63510317  0.55619881  0.68134877    -0.90600
O2050       O  0.62103776  0.59582079  0.70212835    -0.83740
C2051       C  0.61721336  0.57370520  0.68274554     1.11410
O2052       O  0.64646587  0.47951365  0.81044376    -0.96830
Zr2053     Zr  0.64436351  0.52933503  0.78389299     1.88940
O2054       O  0.59037954  0.57537911  0.75769180    -0.73470
O2055       O  0.63914603  0.49233739  0.69448609    -0.52740
O2056       O  0.60646383  0.46919585  0.76260562    -0.97410
O2057       O  0.62418777  0.52381053  0.83230420    -0.54630
O2058       O  0.58435852  0.52261577  0.77805555    -0.73990
C2059       C  0.57101591  0.54227714  0.76821049     0.98350
O2060       O  0.65184709  0.66531174  0.71981685    -0.62810
O2061       O  0.77658292  0.68710163  0.81865940    -0.57610
O2062       O  0.65035745  0.65703187  0.77502746    -0.94300
O2063       O  0.69667119  0.67639505  0.80650349    -0.92720
O2064       O  0.80381202  0.71537405  0.75288078    -0.93080
O2065       O  0.76300326  0.70925936  0.70530502    -0.91860
C2066       C  0.67020445  0.67858874  0.79432450     1.17200
H2067       H  0.79092222  0.64850685  0.78322698     0.33140
H2068       H  0.69890777  0.62934152  0.69494069     0.43990
H2069       H  0.64029033  0.59261955  0.80262419     0.37520
H2070       H  0.68478629  0.50506465  0.75081922     0.34000
H2071       H  0.81022556  0.68943750  0.68144204     0.25790
H2072       H  0.64745408  0.48971093  0.67581650     0.31720
H2073       H  0.58253814  0.45760149  0.77274407     0.37630
H2074       H  0.82730384  0.72682340  0.74217158     0.32090
H2075       H  0.76841348  0.69991898  0.83141028     0.30970
H2076       H  0.71548246  0.64765054  0.86168759     0.32650
H2077       H  0.60558500  0.53182506  0.83199124     0.31620
H2078       H  0.73827533  0.70564587  0.70947391     0.35620
H2079       H  0.67180309  0.68859429  0.72769981     0.28350
H2080       H  0.78409015  0.52545127  0.77501130     0.32580
H2081       H  0.62068886  0.46191687  0.81642810     0.35430
H2082       H  0.78903568  0.67731431  0.83098427     0.28040
H2083       H  0.66061538  0.66577509  0.70059070     0.40920
H2084       H  0.73265671  0.59384379  0.66185354     0.30970
H2085       H  0.79094819  0.64631441  0.67840231     0.38590
H2086       H  0.64572156  0.54396054  0.84185003     0.30440
H2087       H  0.64360979  0.47570276  0.70703745     0.30500
H2088       H  0.74319063  0.49861921  0.76611702     0.30770
C2089       C  0.51121755  0.48566243  0.76099534    -0.12530
C2090       C  0.53035798  0.52356286  0.76747398     0.04480
C2091       C  0.51016325  0.54127207  0.77372939    -0.07810
C2092       C  0.47146288  0.52057298  0.77337396    -0.08560
C2093       C  0.45240403  0.48264108  0.76677433    -0.03110
C2094       C  0.47269462  0.46503863  0.76080355     0.03710
N2095       N  0.45493471  0.42676926  0.75346236     0.66210
H2096       H  0.52639928  0.47176505  0.75597850     0.15110
H2097       H  0.45610949  0.53433254  0.77825111     0.14820
N2098       N  0.52808102  0.57947103  0.78151483     0.73920
O2099       O  0.46347711  0.41825288  0.73074076    -0.39530
O2100       O  0.43810865  0.40171844  0.77207759    -0.39470
O2101       O  0.54753064  0.60491192  0.76381003    -0.40180
O2102       O  0.51823348  0.58796538  0.80365154    -0.40240
C2103       C  0.22356772  0.41505648  0.60363353    -0.12530
C2104       C  0.21897915  0.44606192  0.59967883     0.04480
C2105       C  0.21588974  0.46350382  0.62382483    -0.07810
C2106       C  0.21462682  0.44781808  0.65057535    -0.08560
C2107       C  0.21827883  0.41615414  0.65444647    -0.03110
C2108       C  0.22376429  0.40030524  0.63033290     0.03710
N2109       N  0.22894767  0.36875711  0.63222603     0.66210
H2110       H  0.22479088  0.40045541  0.58575144     0.15110
H2111       H  0.21240419  0.46167586  0.66863985     0.14820
N2112       N  0.21395594  0.49706260  0.62174639     0.73920
O2113       O  0.20433669  0.33853888  0.64337506    -0.39530
O2114       O  0.25539780  0.36942255  0.61922962    -0.39470
O2115       O  0.19424029  0.50233840  0.63874279    -0.40180
O2116       O  0.23566832  0.52352271  0.60553708    -0.40240
C2117       C  0.17541259  0.42339506  0.84948881    -0.12530
C2118       C  0.20865631  0.45691963  0.84482293     0.04480
C2119       C  0.22829870  0.47724348  0.86863661    -0.07810
C2120       C  0.21577788  0.46183507  0.89593960    -0.08560
C2121       C  0.18379104  0.42691977  0.90046159    -0.03110
C2122       C  0.16339716  0.40775854  0.87648340     0.03710
N2123       N  0.13154166  0.37111759  0.87877566     0.66210
H2124       H  0.16012168  0.40713397  0.83181573     0.15110
H2125       H  0.23060530  0.47778328  0.91385951     0.14820
N2126       N  0.26043704  0.51377294  0.86559194     0.73920
O2127       O  0.10368083  0.36276624  0.86374276    -0.39530
O2128       O  0.13373543  0.34550411  0.89185470    -0.39470
O2129       O  0.26285154  0.53536325  0.84557354    -0.40180
O2130       O  0.28430621  0.52628345  0.88466378    -0.40240
C2131       C  0.95556373  0.48070170  0.51724205    -0.12530
C2132       C  0.97493020  0.51977086  0.51332319     0.04480
C2133       C  0.01286526  0.53773201  0.50606914    -0.07810
C2134       C  0.02974141  0.51637544  0.50204822    -0.08560
C2135       C  0.01029115  0.47730631  0.50573870    -0.03110
C2136       C  0.97247915  0.45935928  0.51335894     0.03710
N2137       N  0.95031563  0.41956376  0.51626638     0.66210
H2138       H  0.92635644  0.46609635  0.52233524     0.15110
H2139       H  0.05896826  0.53091278  0.49701815     0.14820
N2140       N  0.03516880  0.57753638  0.00364864     0.73920
O2141       O  0.92784785  0.40497045  0.53646713    -0.39530
O2142       O  0.94856525  0.39944957  0.49639727    -0.39470
O2143       O  0.03696340  0.59716588  0.52388644    -0.40180
O2144       O  0.05792002  0.59248549  0.98365644    -0.40240
C2145       C  0.75498147  0.52701216  0.90684243    -0.12530
C2146       C  0.76284349  0.55403233  0.92702806     0.04480
C2147       C  0.76806719  0.58883219  0.91758904    -0.07810
C2148       C  0.76787398  0.59677713  0.88911090    -0.08560
C2149       C  0.75927762  0.56991525  0.86895749    -0.03110
C2150       C  0.75135214  0.53379325  0.87810814     0.03710
N2151       N  0.73761931  0.50333716  0.85929835     0.66210
H2152       H  0.75069049  0.50004820  0.91369365     0.15110
H2153       H  0.77255616  0.62409329  0.88279771     0.14820
N2154       N  0.77028871  0.61548098  0.93659834     0.73920
O2155       O  0.74294934  0.47644111  0.86440935    -0.39530
O2156       O  0.71480387  0.49990981  0.84060310    -0.39470
O2157       O  0.79459798  0.64933502  0.93297321    -0.40180
O2158       O  0.74147142  0.60726842  0.95018292    -0.40240
C2159       C  0.76655497  0.54745490  0.62293060    -0.12530
C2160       C  0.80073990  0.58065335  0.62039522     0.04480
C2161       C  0.82029570  0.59705215  0.64517030    -0.07810
C2162       C  0.80541386  0.58031281  0.67130449    -0.08560
C2163       C  0.77063600  0.54791710  0.67395942    -0.03110
C2164       C  0.75152843  0.53059417  0.64919503     0.03710
N2165       N  0.71719595  0.49577145  0.65019888     0.66210
H2166       H  0.75205761  0.53349789  0.60424875     0.15110
H2167       H  0.82027989  0.59453650  0.68980013     0.14820
N2168       N  0.85483464  0.63144583  0.64441010     0.73920
O2169       O  0.69302715  0.48881371  0.63175862    -0.39530
O2170       O  0.71292276  0.47010077  0.66721934    -0.39470
O2171       O  0.85735956  0.65981888  0.63193937    -0.40180
O2172       O  0.88153760  0.63466637  0.65889301    -0.40240
C2173       C  0.96987816  0.57455688  0.85905831    -0.12530
C2174       C  0.00825226  0.59359685  0.86342735     0.04480
C2175       C  0.02144579  0.59306454  0.89050172    -0.07810
C2176       C  0.99704477  0.58339700  0.91306730    -0.08560
C2177       C  0.95979581  0.57279561  0.90866292    -0.03110
C2178       C  0.94531550  0.56365310  0.88150984     0.03710
N2179       N  0.90643186  0.54585046  0.87620762     0.66210
H2180       H  0.95891357  0.57126209  0.83813594     0.15110
H2181       H  0.00774134  0.58665065  0.93410896     0.14820
N2182       N  0.05923490  0.60333586  0.89534908     0.73920
O2183       O  0.89454250  0.55717720  0.85614348    -0.39530
O2184       O  0.88485317  0.51507457  0.88833824    -0.39470
O2185       O  0.07505639  0.61896841  0.91760813    -0.40180
O2186       O  0.07487897  0.59161760  0.87948525    -0.40240
C2187       C  0.92623387  0.63838745  0.74761978    -0.12530
C2188       C  0.94873721  0.66396343  0.72652419     0.04480
C2189       C  0.93377349  0.68230123  0.71032417    -0.07810
C2190       C  0.89760499  0.67530161  0.71653331    -0.08560
C2191       C  0.87619634  0.65100100  0.73880071    -0.03110
C2192       C  0.89197169  0.63365373  0.75511506     0.03710
N2193       N  0.87488106  0.61289069  0.78051600     0.66210
H2194       H  0.93631149  0.62330740  0.76010088     0.15110
H2195       H  0.88571639  0.68809432  0.70331898     0.14820
N2196       N  0.95350517  0.70595050  0.68662521     0.73920
O2197       O  0.87441518  0.58278039  0.78607973    -0.39530
O2198       O  0.86660322  0.62792491  0.79951975    -0.39470
O2199       O  0.97248490  0.69774745  0.67114342    -0.40180
O2200       O  0.94756649  0.73168359  0.67866010    -0.40240
C2201       C  0.00354663  0.40906655  0.66180694    -0.12530
C2202       C  0.96506638  0.38830795  0.65757866     0.04480
C2203       C  0.95170785  0.38492232  0.63000632    -0.07810
C2204       C  0.97685804  0.39659423  0.60764504    -0.08560
C2205       C  0.01512518  0.41226448  0.61205768    -0.03110
C2206       C  0.02862818  0.42119112  0.63950517     0.03710
N2207       N  0.06739081  0.44030733  0.64542027     0.66210
H2208       H  0.01460747  0.41412419  0.68276424     0.15110
H2209       H  0.96609153  0.39174526  0.58659011     0.14820
N2210       N  0.91302016  0.36871905  0.62421240     0.73920
O2211       O  0.08794606  0.47293796  0.63568457    -0.39530
O2212       O  0.07981035  0.42740175  0.66398515    -0.39470
O2213       O  0.89441365  0.38069755  0.63611621    -0.40180
O2214       O  0.89893734  0.34709599  0.60408198    -0.40240
C2215       C  0.07923807  0.31081146  0.80034296    -0.12530
C2216       C  0.10535092  0.34532756  0.78797957     0.04480
C2217       C  0.09481553  0.37242347  0.78318651    -0.07810
C2218       C  0.05895310  0.36412476  0.78926237    -0.08560
C2219       C  0.03164227  0.32864511  0.79922745    -0.03110
C2220       C  0.04260443  0.30218122  0.80616000     0.03710
N2221       N  0.01739596  0.26681174  0.81915268     0.66210
H2222       H  0.08726495  0.29029219  0.80535112     0.15110
H2223       H  0.05213587  0.38561399  0.78452626     0.14820
N2224       N  0.11994082  0.40872902  0.77176004     0.73920
O2225       O  0.01788532  0.23797782  0.81228336    -0.39530
O2226       O  0.99971028  0.26545434  0.84081368    -0.39470
O2227       O  0.12295127  0.41373529  0.74556364    -0.40180
O2228       O  0.13121704  0.43655963  0.78703962    -0.40240
C2229       C  0.94935217  0.47712863  0.76421777    -0.12530
C2230       C  0.96904329  0.45790797  0.76329871     0.04480
C2231       C  0.00791904  0.47879172  0.76061891    -0.07810
C2232       C  0.02594599  0.51771513  0.75959558    -0.08560
C2233       C  0.00629717  0.53696234  0.76076163    -0.03110
C2234       C  0.96738384  0.51606693  0.76302915     0.03710
N2235       N  0.94551928  0.53363696  0.76368565     0.66210
H2236       H  0.91947869  0.46185993  0.76584232     0.15110
H2237       H  0.05581925  0.53293199  0.75801324     0.14820
N2238       N  0.02977927  0.46123875  0.75940496     0.73920
O2239       O  0.92471535  0.53018733  0.74340649    -0.39530
O2240       O  0.94103552  0.54541396  0.78646809    -0.39470
O2241       O  0.03228348  0.44791244  0.73672333    -0.40180
O2242       O  0.05243662  0.46622763  0.77864988    -0.40240
C2243       C  0.76740258  0.23458149  0.87537473    -0.12530
C2244       C  0.79893009  0.23112857  0.87231403     0.04480
C2245       C  0.81871458  0.23202566  0.89686154    -0.07810
C2246       C  0.80667345  0.23609087  0.92310438    -0.08560
C2247       C  0.77391876  0.23705676  0.92644964    -0.03110
C2248       C  0.75474825  0.23771044  0.90197681     0.03710
N2249       N  0.72255024  0.24157416  0.90371808     0.66210
H2250       H  0.75298385  0.23577755  0.85685285     0.15110
H2251       H  0.82127814  0.23457648  0.94136803     0.14820
N2252       N  0.84977321  0.22630576  0.89595853     0.73920
O2253       O  0.72023476  0.26135468  0.92221271    -0.39530
O2254       O  0.69810150  0.22845172  0.88509323    -0.39470
O2255       O  0.87750409  0.24512005  0.91111557    -0.40180
O2256       O  0.84697363  0.19849610  0.88378085    -0.40240
C2257       C  0.77463046  0.18584153  0.66980655    -0.12530
C2258       C  0.76513644  0.21326828  0.67417965     0.04480
C2259       C  0.75788152  0.22995403  0.65057206    -0.07810
C2260       C  0.76180562  0.21983129  0.62349224    -0.08560
C2261       C  0.77213094  0.19296415  0.61917980    -0.03110
C2262       C  0.77888888  0.17598803  0.64283745     0.03710
N2263       N  0.79157547  0.14986720  0.63989279     0.66210
H2264       H  0.78157051  0.17385924  0.68752019     0.15110
H2265       H  0.75479763  0.23163380  0.60563830     0.14820
N2266       N  0.74578069  0.25652195  0.65372489     0.73920
O2267       O  0.81438033  0.15478044  0.62081821    -0.39530
O2268       O  0.78365150  0.12452983  0.65830140    -0.39470
O2269       O  0.75216140  0.28073186  0.63468888    -0.40180
O2270       O  0.72541072  0.25350159  0.67411592    -0.40240
C2271       C  0.90462111  0.22149920  0.97792551    -0.12530
C2272       C  0.87800524  0.23141891  0.98432451     0.04480
C2273       C  0.88816463  0.26938945  0.98200876    -0.07810
C2274       C  0.92434573  0.29617611  0.97485453    -0.08560
C2275       C  0.95209663  0.28697627  0.97154773    -0.03110
C2276       C  0.94159595  0.24879527  0.97165250     0.03710
N2277       N  0.96793489  0.23721039  0.96636369     0.66210
H2278       H  0.89685548  0.19238445  0.97852627     0.15110
H2279       H  0.93138151  0.32510145  0.97417542     0.14820
N2280       N  0.86260247  0.28180350  0.98760975     0.73920
O2281       O  0.96698399  0.21076955  0.98071276    -0.39530
O2282       O  0.98737948  0.24848217  0.94435791    -0.39470
O2283       O  0.85548657  0.28473222  0.51266006    -0.40180
O2284       O  0.85614278  0.29952804  0.96870522    -0.40240
C2285       C  0.51432491  0.03583409  0.00551591    -0.12530
C2286       C  0.53256584  0.01795982  0.51695308     0.04480
C2287       C  0.51207298  0.97989185  0.52493860    -0.07810
C2288       C  0.47380673  0.96056067  0.52069039    -0.08560
C2289       C  0.45559725  0.97851424  0.50932236    -0.03110
C2290       C  0.47612516  0.01653668  0.00127960     0.03710
N2291       N  0.45912228  0.03544138  0.98767703     0.66210
H2292       H  0.53026449  0.06481941  0.99870538     0.15110
H2293       H  0.45779881  0.93156252  0.52743976     0.14820
N2294       N  0.52912204  0.96100871  0.53850474     0.73920
O2295       O  0.47236082  0.06992507  0.99063662    -0.39530
O2296       O  0.43401202  0.01899101  0.96991270    -0.39470
O2297       O  0.55467712  0.97765043  0.55591048    -0.40180
O2298       O  0.51555283  0.92641861  0.53590055    -0.40240
C2299       C  0.21475366  0.77214412  0.65734428    -0.12530
C2300       C  0.18843826  0.78333520  0.66066195     0.04480
C2301       C  0.17323993  0.79052069  0.63631074    -0.07810
C2302       C  0.18373533  0.78524518  0.60976979    -0.08560
C2303       C  0.21041571  0.77462963  0.60631826    -0.03110
C2304       C  0.22576020  0.76747711  0.63063492     0.03710
N2305       N  0.25167847  0.75449635  0.62864012     0.66210
H2306       H  0.22526450  0.76484732  0.67573484     0.15110
H2307       H  0.17274725  0.79215641  0.59154934     0.14820
N2308       N  0.14798012  0.80434541  0.63811017     0.73920
O2309       O  0.27512226  0.76129234  0.64764228    -0.39530
O2310       O  0.24873085  0.73291485  0.60951159    -0.39470
O2311       O  0.15244711  0.82754544  0.65635581    -0.40180
O2312       O  0.12378777  0.79677318  0.61958216    -0.40240
C2313       C  0.19429597  0.74981153  0.87712293    -0.12530
C2314       C  0.21977344  0.76771077  0.85509904     0.04480
C2315       C  0.25384105  0.79975405  0.86139639    -0.07810
C2316       C  0.25757401  0.81662813  0.88752387    -0.08560
C2317       C  0.22932749  0.80083217  0.90808632    -0.03110
C2318       C  0.19795289  0.76602877  0.90304533     0.03710
N2319       N  0.16813588  0.74795171  0.92298108     0.66210
H2320       H  0.16930614  0.72423391  0.87342492     0.15110
H2321       H  0.28294085  0.84198746  0.89214056     0.14820
N2322       N  0.28499203  0.81436875  0.84246636     0.73920
O2323       O  0.15489992  0.76599730  0.93399479    -0.39530
O2324       O  0.15133449  0.71297297  0.92629424    -0.39470
O2325       O  0.28485598  0.79568396  0.82210641    -0.40180
O2326       O  0.31458684  0.84387609  0.84796002    -0.40240
C2327       C  0.08473747  0.77328941  0.55176809    -0.12530
C2328       C  0.11199132  0.76517057  0.54337592     0.04480
C2329       C  0.10235002  0.72737118  0.54244450    -0.07810
C2330       C  0.06588476  0.69913521  0.54715503    -0.08560
C2331       C  0.03762465  0.70701491  0.55229076    -0.03110
C2332       C  0.04751608  0.74474129  0.55576776     0.03710
N2333       N  0.02024882  0.75505557  0.56118562     0.66210
H2334       H  0.09178675  0.80208298  0.55317646     0.15110
H2335       H  0.05919207  0.67052566  0.54497982     0.14820
N2336       N  0.12907793  0.71684648  0.53610159     0.73920
O2337       O  0.02679919  0.77958842  0.57880966    -0.39530
O2338       O  0.99318070  0.74517125  0.54499310    -0.39470
O2339       O  0.14598633  0.71128827  0.55585708    -0.40180
O2340       O  0.12852623  0.70394001  0.51246344    -0.40240
C2341       C  0.56166255  0.60001502  0.63625348    -0.12530
C2342       C  0.57611559  0.59808556  0.61043525     0.04480
C2343       C  0.59265082  0.57568554  0.60842928    -0.07810
C2344       C  0.60159734  0.56306607  0.63293681    -0.08560
C2345       C  0.59348212  0.57149120  0.65910026    -0.03110
C2346       C  0.56951912  0.58616540  0.66071581     0.03710
N2347       N  0.55464804  0.58877552  0.68698685     0.66210
H2348       H  0.54658551  0.61477329  0.63776198     0.15110
H2349       H  0.61778272  0.54945300  0.63146000     0.14820
N2350       N  0.60252522  0.56747292  0.58198311     0.73920
O2351       O  0.54755126  0.61448350  0.69075142    -0.39530
O2352       O  0.54457628  0.56294868  0.70528345    -0.39470
O2353       O  0.63154625  0.56560685  0.57954228    -0.40180
O2354       O  0.57991899  0.55726009  0.56208427    -0.40240
C2355       C  0.74770302  0.70710238  0.97781737    -0.12530
C2356       C  0.71132263  0.67649415  0.97806838     0.04480
C2357       C  0.70585968  0.64114381  0.98661537    -0.07810
C2358       C  0.73526236  0.63815529  0.99765536    -0.08560
C2359       C  0.77188091  0.66783021  0.99603776    -0.03110
C2360       C  0.77817963  0.70311460  0.98617390     0.03710
N2361       N  0.81451816  0.73546541  0.98633676     0.66210
H2362       H  0.75228635  0.73454501  0.97222149     0.15110
H2363       H  0.72975953  0.61073837  0.50446969     0.14820
N2364       N  0.67100879  0.60754145  0.98297189     0.73920
O2365       O  0.82283822  0.76225992  0.96922345    -0.39530
O2366       O  0.83650717  0.73966021  0.50594495    -0.39470
O2367       O  0.65402872  0.60238562  0.96014263    -0.40180
O2368       O  0.66001486  0.58082444  0.50056202    -0.40240
C2369       C  0.64153243  0.89439381  0.55269874    -0.12530
C2370       C  0.66358822  0.89009952  0.53276530     0.04480
C2371       C  0.69303031  0.92218266  0.51966240    -0.07810
C2372       C  0.69915766  0.95750408  0.52696979    -0.09040
C2373       C  0.67637874  0.96164775  0.54629811    -0.03110
C2374       C  0.64772686  0.92969315  0.55995016     0.03710
N2375       N  0.62441419  0.93251463  0.58063295     0.66210
H2376       H  0.61861444  0.86977341  0.56229918     0.15110
H2377       H  0.72010573  0.98206046  0.01575743     0.14820
N2378       N  0.71522260  0.91971002  0.99778976     0.73920
O2379       O  0.59458163  0.90405984  0.58843239    -0.39530
O2380       O  0.63508469  0.96251053  0.59316359    -0.39470
O2381       O  0.70344144  0.89058343  0.98390027    -0.40180
O2382       O  0.74550369  0.94797951  0.99051988    -0.40240
C2383       C  0.28549479  0.36087645  0.55867932    -0.12530
C2384       C  0.27622214  0.32326655  0.56034974     0.04480
C2385       C  0.23876754  0.29579752  0.55612149    -0.07810
C2386       C  0.21277699  0.30688808  0.54856765    -0.08560
C2387       C  0.22335409  0.34458527  0.54364786    -0.03110
C2388       C  0.26044056  0.37184283  0.54921555     0.03710
N2389       N  0.27400624  0.41082871  0.54432959     0.66210
H2390       H  0.31413986  0.38231427  0.56117548     0.15110
H2391       H  0.18428177  0.28575100  0.54519105     0.14820
N2392       N  0.22713423  0.25680053  0.55750203     0.73920
O2393       O  0.29273177  0.43342243  0.56299162    -0.39530
O2394       O  0.27631602  0.42317094  0.51959243    -0.39470
O2395       O  0.24157509  0.24449259  0.57479907    -0.40180
O2396       O  0.19989652  0.23395571  0.04340824    -0.40240
C2397       C  0.41165192  0.41022377  0.89735311    -0.12530
C2398       C  0.38165484  0.38219642  0.91280281     0.04480
C2399       C  0.34611006  0.37786499  0.90994592    -0.07810
C2400       C  0.34207256  0.40343407  0.89356318    -0.08560
C2401       C  0.37045333  0.42769859  0.87541721    -0.03110
C2402       C  0.40612641  0.43252152  0.87769818     0.03710
N2403       N  0.43601388  0.45873144  0.85975542     0.66210
H2404       H  0.43899624  0.41393231  0.90004997     0.15110
H2405       H  0.31438284  0.39893546  0.89065559     0.14820
N2406       N  0.31327446  0.34512088  0.92022930     0.73920
O2407       O  0.46609657  0.45863606  0.85895853    -0.39530
O2408       O  0.43335586  0.48353737  0.84581905    -0.39470
O2409       O  0.28615023  0.34755990  0.92878525    -0.40180
O2410       O  0.30869696  0.31328290  0.91572755    -0.40240
C2411       C  0.47408652  0.48359495  0.53932597    -0.12530
C2412       C  0.46819337  0.46397690  0.51478364     0.04480
C2413       C  0.48593009  0.48319949  0.98964226    -0.07810
C2414       C  0.50964823  0.52179444  0.98984916    -0.08560
C2415       C  0.51526862  0.54147942  0.51431500    -0.03110
C2416       C  0.49659566  0.52243770  0.53929597     0.03710
N2417       N  0.49973411  0.54180879  0.56453979     0.66210
H2418       H  0.46073474  0.46847507  0.55854483     0.15110
H2419       H  0.52303659  0.53682138  0.97060336     0.14820
N2420       N  0.48053806  0.46407360  0.96395574     0.73920
O2421       O  0.49675391  0.52594535  0.58806249    -0.39530
O2422       O  0.50071885  0.57266118  0.56355690    -0.39470
O2423       O  0.44874409  0.43857883  0.95735952    -0.40180
O2424       O  0.50630584  0.47600513  0.94607579    -0.40240
C2425       C  0.35173482  0.06546597  0.49728924    -0.12530
C2426       C  0.32132691  0.03995327  0.98158959     0.04480
C2427       C  0.29759877  0.05231763  0.97052250    -0.07810
C2428       C  0.30555752  0.08937489  0.97490048    -0.08560
C2429       C  0.33551998  0.11411959  0.99150145    -0.03110
C2430       C  0.35796780  0.10077291  0.50347900     0.03710
N2431       N  0.38642006  0.12175293  0.52325051     0.66210
H2432       H  0.37038790  0.05738371  0.50660110     0.15110
H2433       H  0.28780538  0.09862761  0.96556401     0.14820
N2434       N  0.26544733  0.02808067  0.95493451     0.73920
O2435       O  0.37805484  0.13035230  0.54602584    -0.39530
O2436       O  0.41809391  0.12554840  0.52039516    -0.39470
O2437       O  0.23926193  0.99967571  0.96689665    -0.40180
O2438       O  0.25983112  0.03911564  0.93155633    -0.40240
C2439       C  0.56643736  0.97995999  0.88450660    -0.12530
C2440       C  0.59322206  0.97461872  0.87154704     0.04480
C2441       C  0.63115654  0.99897424  0.87615061    -0.07810
C2442       C  0.64163996  0.02963565  0.89234335    -0.08560
C2443       C  0.61528175  0.03435785  0.90633560    -0.03110
C2444       C  0.57713290  0.00953517  0.90269991     0.03710
N2445       N  0.54953203  0.01419674  0.91692385     0.66210
H2446       H  0.53750992  0.96161753  0.87994049     0.15110
H2447       H  0.67078398  0.04778371  0.89657735     0.14820
N2448       N  0.65915999  0.99218994  0.86515883     0.73920
O2449       O  0.51611250  0.98856023  0.91714274    -0.39530
O2450       O  0.55784307  0.04474845  0.92774916    -0.39470
O2451       O  0.69134035  0.01897970  0.86012529    -0.40180
O2452       O  0.65313595  0.95933220  0.86355681    -0.40240
C2453       C  0.76851288  0.08205402  0.73019128    -0.12530
C2454       C  0.75982317  0.11026719  0.73401109     0.04480
C2455       C  0.72300848  0.10158797  0.72926793    -0.07810
C2456       C  0.69570632  0.06513101  0.72331331    -0.08560
C2457       C  0.70318759  0.03573567  0.72296236    -0.03110
C2458       C  0.74066515  0.04474727  0.72536060     0.03710
N2459       N  0.75103227  0.01666570  0.72467779     0.66210
H2460       H  0.79680488  0.08850084  0.73295829     0.15110
H2461       H  0.66743184  0.05912346  0.72128104     0.14820
N2462       N  0.71235560  0.12921843  0.73093010     0.73920
O2463       O  0.78097197  0.02397759  0.71301583    -0.39530
O2464       O  0.73381772  0.98707853  0.73934067    -0.39470
O2465       O  0.69965616  0.13715305  0.70950113    -0.40180
O2466       O  0.70622640  0.13767818  0.75458695    -0.40240
C2467       C  0.54149980  0.74093516  0.85902316    -0.12530
C2468       C  0.52077633  0.75872389  0.85662366     0.04480
C2469       C  0.51060339  0.76918010  0.88164796    -0.07810
C2470       C  0.52770104  0.76853276  0.90707724    -0.08560
C2471       C  0.55178768  0.75428102  0.90873186    -0.03110
C2472       C  0.55542769  0.73692025  0.88470496     0.03710
N2473       N  0.57172304  0.71373040  0.88604677     0.66210
H2474       H  0.54782513  0.73076961  0.84059384     0.15110
H2475       H  0.52199224  0.77904677  0.92567412     0.14820
N2476       N  0.48341074  0.78064265  0.88163821     0.73920
O2477       O  0.59432529  0.71688902  0.86736652    -0.39530
O2478       O  0.55772139  0.68529209  0.90217244    -0.39470
O2479       O  0.45513079  0.76431975  0.86652901    -0.40180
O2480       O  0.48434352  0.80243166  0.89987113    -0.40240
C2481       C  0.53114045  0.77670752  0.62208808    -0.12530
C2482       C  0.56244054  0.78429675  0.60627975     0.04480
C2483       C  0.59652377  0.79755833  0.62039269    -0.07810
C2484       C  0.59831161  0.80250786  0.64918547    -0.08560
C2485       C  0.56761295  0.79584545  0.66476213    -0.03110
C2486       C  0.53333844  0.78311767  0.65104340     0.03710
N2487       N  0.50100272  0.77764812  0.66565887     0.66210
H2488       H  0.50462169  0.76509989  0.61183011     0.15110
H2489       H  0.62483549  0.81397734  0.65948276     0.14820
N2490       N  0.63003943  0.80664410  0.60619936     0.73920
O2491       O  0.47660560  0.78141557  0.65277983    -0.39530
O2492       O  0.49466493  0.76520176  0.69055274    -0.39470
O2493       O  0.63906294  0.82723488  0.58457440    -0.40180
O2494       O  0.65483320  0.80375784  0.61924903    -0.40240
C2495       C  0.67654005  0.77296378  0.79890170    -0.12530
C2496       C  0.63944211  0.76256609  0.79365518     0.04480
C2497       C  0.61271295  0.72400955  0.79414588    -0.07810
C2498       C  0.62369024  0.69764678  0.79882802    -0.08560
C2499       C  0.66099871  0.70779524  0.80123534    -0.03110
C2500       C  0.68772200  0.74614706  0.80241339     0.03710
N2501       N  0.72626081  0.75849323  0.80561235     0.66210
H2502       H  0.69728191  0.80223339  0.79924883     0.15110
H2503       H  0.60280129  0.66842411  0.79796037     0.14820
N2504       N  0.57442057  0.71046435  0.78850085     0.73920
O2505       O  0.75011416  0.78681693  0.79195266    -0.39530
O2506       O  0.73673128  0.74526038  0.82533041    -0.39470
O2507       O  0.56470352  0.71131409  0.76359704    -0.40180
O2508       O  0.55046560  0.68779304  0.80574921    -0.40240
C2509       C  0.41672389  0.02570098  0.63828157    -0.12530
C2510       C  0.39395301  0.00991214  0.66203484     0.04480
C2511       C  0.36966711  0.97089715  0.66374914    -0.07810
C2512       C  0.36658517  0.94937942  0.64125579    -0.08560
C2513       C  0.38507557  0.96591856  0.61611119    -0.03110
C2514       C  0.41272935  0.00395680  0.61514541     0.03710
N2515       N  0.43603517  0.02065846  0.59084137     0.66210
H2516       H  0.43674406  0.05521100  0.63739871     0.15110
H2517       H  0.34542137  0.92019250  0.64236571     0.14820
N2518       N  0.34369140  0.95315652  0.68618569     0.73920
O2519       O  0.45309814  0.05553534  0.58678748    -0.39530
O2520       O  0.44276251  0.00105007  0.57493586    -0.39470
O2521       O  0.31115201  0.94704177  0.68321473    -0.40180
O2522       O  0.35046369  0.93623528  0.70553110    -0.40240
C2523       C  0.27127212  0.93157291  0.80967839    -0.12530
C2524       C  0.26656563  0.96188023  0.80289389     0.04480
C2525       C  0.23128764  0.95458360  0.79351778    -0.07810
C2526       C  0.20329401  0.91733982  0.78855746    -0.08560
C2527       C  0.20973371  0.88753392  0.79324929    -0.03110
C2528       C  0.24353521  0.89511598  0.80512560     0.03710
N2529       N  0.24960191  0.86556519  0.81360416     0.66210
H2530       H  0.29759312  0.93639303  0.81764654     0.15110
H2531       H  0.17683315  0.91171853  0.78041831     0.14820
N2532       N  0.22366641  0.98422357  0.78828613     0.73920
O2533       O  0.27907375  0.86647436  0.80674711    -0.39530
O2534       O  0.22772235  0.84129710  0.83104804    -0.39470
O2535       O  0.20157463  0.98155066  0.76919144    -0.40180
O2536       O  0.23320628  0.00940715  0.80587936    -0.40240
C2537       C  0.50221321  0.98760672  0.78450453    -0.12530
C2538       C  0.51169866  0.98091204  0.75821760     0.04480
C2539       C  0.49502569  0.98573210  0.73387992    -0.07810
C2540       C  0.46870792  0.99687835  0.73668642    -0.08560
C2541       C  0.45925552  0.00353021  0.76302009    -0.03110
C2542       C  0.47581493  0.99851979  0.78731025     0.03710
N2543       N  0.46565353  0.00379436  0.81480339     0.66210
H2544       H  0.51388279  0.98211384  0.80308288     0.15110
H2545       H  0.45707509  0.00253182  0.71816065     0.14820
N2546       N  0.50522801  0.98045506  0.70639626     0.73920
O2547       O  0.48728235  0.01021863  0.83509608    -0.39530
O2548       O  0.43374429  0.99859490  0.81951511    -0.39470
O2549       O  0.53676497  0.98458165  0.70188385    -0.40180
O2550       O  0.48410583  0.97511973  0.68592742    -0.40240
C2551       C  0.45931539  0.22550905  0.64814580    -0.12530
C2552       C  0.43356913  0.21780497  0.66970795     0.04480
C2553       C  0.39753484  0.20921449  0.66231611    -0.07810
C2554       C  0.38720995  0.20530048  0.63430656    -0.08560
C2555       C  0.41299212  0.21430896  0.61263485    -0.03110
C2556       C  0.44978964  0.22499960  0.61982585     0.03710
N2557       N  0.47804549  0.23656009  0.59896450     0.66210
H2558       H  0.48696039  0.23147743  0.65336113     0.15110
H2559       H  0.35923470  0.19850839  0.62934941     0.14820
N2560       N  0.37174584  0.20690825  0.68273959     0.73920
O2561       O  0.50794790  0.26698179  0.60131117    -0.39530
O2562       O  0.47621723  0.21339225  0.58167770    -0.39470
O2563       O  0.38108816  0.23476460  0.69753272    -0.40180
O2564       O  0.33783431  0.18351268  0.68026448    -0.40240
C2565       C  0.44979306  0.19762069  0.91628676    -0.12530
C2566       C  0.45002876  0.23158917  0.91653894     0.04480
C2567       C  0.44769730  0.24754302  0.89026803    -0.07810
C2568       C  0.44525702  0.22999814  0.86561456    -0.08560
C2569       C  0.44025956  0.19456663  0.86565809    -0.03110
C2570       C  0.44511306  0.17882921  0.89099804     0.03710
N2571       N  0.44638165  0.14483262  0.89124176     0.66210
H2572       H  0.45244049  0.18538225  0.93581838     0.15110
H2573       H  0.44217735  0.24256953  0.84635422     0.14820
N2574       N  0.44201369  0.27857292  0.88749337     0.73920
O2575       O  0.44022690  0.12563984  0.91358145    -0.39530
O2576       O  0.45865788  0.13664168  0.87025530    -0.39470
O2577       O  0.47017283  0.31038665  0.88429376    -0.40180
O2578       O  0.41252643  0.27298367  0.87592434    -0.40240
C2579       C  0.36298222  0.26294061  0.74472478    -0.12530
C2580       C  0.33314489  0.22627342  0.74797494     0.04480
C2581       C  0.29683686  0.22039763  0.74515866    -0.07810
C2582       C  0.29174712  0.25124118  0.73954603    -0.08560
C2583       C  0.32187154  0.28785770  0.73664295    -0.03110
C2584       C  0.35801887  0.29330823  0.73799558     0.03710
N2585       N  0.38996706  0.32929938  0.73195736     0.66210
H2586       H  0.39088089  0.26778068  0.74613348     0.15110
H2587       H  0.26399488  0.24694110  0.73947308     0.14820
N2588       N  0.26495076  0.18420421  0.75013666     0.73920
O2589       O  0.42167350  0.33599188  0.73939247    -0.39530
O2590       O  0.38743513  0.35247642  0.71581251    -0.39470
O2591       O  0.26492684  0.16320512  0.76973649    -0.40180
O2592       O  0.23502454  0.17540968  0.73780361    -0.40240
loop_ 
_geom_bond_atom_site_label_1 
_geom_bond_atom_site_label_2 
_geom_bond_distance 
_geom_bond_site_symmetry_2 
_ccdc_geom_bond_type 
Zr1           O2   2.435       .  S
Zr1           O3   2.431       .  S
Zr1           O4   2.485       .  S
Zr1           O7   2.480       .  S
Zr1           O9   2.399       .  S
Zr1          O10   2.414       .  S
Zr1          O11   2.421       .  S
Zr1          O12   2.396       .  S
O2           H58   0.990       .  S
O2           H66   0.990       .  S
O3           C23   1.287       .  A
O4           C25   1.288       .  A
O5          Zr15   2.416       .  S
O5           C24   1.282       .  A
O6          Zr14   2.395       .  S
O6           C25   1.263       .  A
O7           C24   1.300       .  A
O8          Zr16   2.479       .  S
O8           C23   1.294       .  A
O9          Zr14   2.414       .  S
O9          Zr16   2.347       .  S
O10         Zr15   2.409       .  S
O10         Zr16   2.381       .  S
O10          H45   0.966       .  S
O11         Zr14   2.422       .  S
O11         Zr31   2.394       .  S
O11          H48   0.966       .  S
O12         Zr15   2.369       .  S
O12         Zr31   2.365       .  S
Zr13         O38   2.441   1_545  S
Zr13         O32   2.440       .  S
Zr13         O40   2.394   1_545  S
Zr13         O28   2.372       .  S
Zr13         O19   2.351       .  S
Zr13         O20   2.412       .  S
Zr13         O21   2.349       .  S
Zr13         O22   2.372       .  S
Zr14         O33   2.439       .  S
Zr14         O26   2.434       .  S
Zr14         O27   2.439       .  S
Zr14         O20   2.413       .  S
Zr14         O21   2.382       .  S
Zr15         O17   2.436       .  S
Zr15         O39   2.436       .  S
Zr15         O41   2.473       .  S
Zr15         O19   2.333       .  S
Zr15         O22   2.397       .  S
Zr16         O42   2.431       .  S
Zr16         O43   2.432       .  S
Zr16         O18   2.433       .  S
Zr16         O19   2.366       .  S
Zr16         O20   2.444       .  S
O17          H54   0.989       .  S
O18          H49   0.990       .  S
O18          H63   0.990       .  S
O20          H46   0.966       .  S
O21         Zr31   2.382       .  S
O22         Zr31   2.417       .  S
O22          H47   0.965       .  S
C23        C1284   1.507       .  S
C24        C1273   1.479       .  S
C25        C1256   1.485       .  S
O26          H62   0.989       .  S
O27          C29   1.285       .  A
O28          C29   1.273       .  A
C29        C1214   1.476       .  S
O30         Zr31   2.440       .  S
O30          H59   0.990       .  S
Zr31         O34   2.438       .  S
Zr31         O35   2.440       .  S
Zr31         O36   2.380       .  S
O32          C37   1.285       .  A
O33          H50   0.990       .  S
O33          H65   0.990       .  S
O34          H51   0.990       .  S
O35          H55   0.991       .  S
O35          H64   0.988       .  S
O36          C37   1.274       .  A
C37        C1245   1.458       .  S
O38          H57   0.988       .  S
O38          H61   0.989       .  S
O39          H53   0.989       .  S
O39          H60   0.991       .  S
O40          C44   1.274       .  A
O41          C44   1.284   1_545  A
O42          H52   0.990       .  S
O43          H56   0.989       .  S
C44        C1228   1.491       .  S
Zr67         O68   2.438       .  S
Zr67         O69   2.420       .  S
Zr67         O70   2.474       .  S
Zr67         O73   2.475       .  S
Zr67         O75   2.401       .  S
Zr67         O76   2.397       .  S
Zr67         O77   2.412       .  S
Zr67         O78   2.407       .  S
O68         H124   0.990       .  S
O68         H132   0.989       .  S
O69          C89   1.281       .  A
O70          C91   1.294       .  A
O71         Zr81   2.396       .  S
O71          C90   1.269       .  A
O72         Zr80   2.418       .  S
O72          C91   1.285       .  A
O73          C90   1.290       .  A
O74         Zr82   2.462       .  S
O74          C89   1.289       .  A
O75         Zr80   2.414       .  S
O75         Zr82   2.377       .  S
O76         Zr81   2.398       .  S
O76         Zr82   2.349       .  S
O76         H111   0.964       .  S
O77         Zr80   2.421       .  S
O77         Zr97   2.349       .  S
O77         H114   0.963       .  S
O78         Zr81   2.402       .  S
O78         Zr97   2.389       .  S
Zr79        O104   2.446   1_565  S
Zr79         O98   2.446       .  S
Zr79        O106   2.361       .  S
Zr79         O94   2.402       .  S
Zr79         O85   2.401       .  S
Zr79         O86   2.401       .  S
Zr79         O87   2.361       .  S
Zr79         O88   2.366       .  S
Zr80         O99   2.435       .  S
Zr80         O92   2.436       .  S
Zr80         O93   2.499       .  S
Zr80         O86   2.382       .  S
Zr80         O87   2.395       .  S
Zr81         O83   2.433       .  S
Zr81        O105   2.440       .  S
Zr81        O107   2.421       .  S
Zr81         O85   2.383       .  S
Zr81         O88   2.375       .  S
Zr82        O108   2.437       .  S
Zr82        O109   2.440       .  S
Zr82         O84   2.438       .  S
Zr82         O85   2.414       .  S
Zr82         O86   2.392       .  S
O83         H120   0.990       .  S
O84         H115   0.990       .  S
O84         H129   0.990       .  S
O86         H112   0.962       .  S
O87         Zr97   2.397       .  S
O88         Zr97   2.373       .  S
O88         H113   0.966       .  S
C89        C1200   1.499       .  S
C90        C1172   1.498       .  S
C91        C1189   1.473       .  S
O92         H128   0.990       .  S
O93          C95   1.295       .  A
O94          C95   1.277       .  A
C95        C1161   1.499   1_565  S
O96         Zr97   2.440       .  S
O96         H125   0.990       .  S
Zr97        O100   2.437       .  S
Zr97        O101   2.440       .  S
Zr97        O102   2.377       .  S
O98         C103   1.285       .  A
O99         H116   0.990       .  S
O99         H131   0.990       .  S
O100        H117   0.990       .  S
O101        H121   0.990       .  S
O101        H130   0.990       .  S
O102        C103   1.273       .  A
C103       C1242   1.459       .  S
O104        H123   0.991       .  S
O104        H127   0.990       .  S
O105        H119   0.989       .  S
O105        H126   0.988       .  S
O106        C110   1.271       .  A
O107        C110   1.279       .  A
O108        H118   0.990       .  S
O109        H122   0.990       .  S
C110       C1144   1.444       .  S
Zr133       O134   2.433       .  S
Zr133       O135   2.402       .  S
Zr133       O136   2.477       .  S
Zr133      O1435   2.525   1_554  S
Zr133       O141   2.410       .  S
Zr133       O143   2.425       .  S
Zr133      O1438   2.377   1_554  S
Zr133      O1440   2.395   1_554  S
O134        H190   0.989       .  S
O134        H198   0.990       .  S
O135        C155   1.279   1_554  A
O136        C157   1.295       .  A
O137       Zr147   2.377       .  S
O137        C156   1.269       .  A
O138       Zr146   2.409       .  S
O138        C157   1.285       .  A
O139      Zr1429   2.525       .  S
O139        C156   1.301       .  A
O140       Zr148   2.494       .  S
O140       C1451   1.294       .  A
O141       Zr146   2.418       .  S
O141      Zr1444   2.363   1_554  S
O142       Zr147   2.385       .  S
O142       Zr148   2.350       .  S
O142      Zr1429   2.377       .  S
O142        H177   0.965       .  S
O143       Zr146   2.425       .  S
O143       Zr163   2.353       .  S
O143        H180   0.963       .  S
O144       Zr147   2.392       .  S
O144      Zr1429   2.395       .  S
O144      Zr1459   2.398       .  S
Zr145       O170   2.442       .  S
Zr145       O164   2.453       .  S
Zr145       O172   2.377       .  S
Zr145      O1456   2.368       .  S
Zr145       O151   2.396       .  S
Zr145       O154   2.358       .  S
Zr145      O1448   2.418       .  S
Zr145      O1449   2.364       .  S
Zr146       O165   2.435       .  S
Zr146       O158   2.435       .  S
Zr146       O159   2.521       .  S
Zr146       O152   2.368       .  S
Zr146       O153   2.389       .  S
Zr147       O149   2.429       .  S
Zr147       O171   2.434       .  S
Zr147       O173   2.392       .  S
Zr147       O151   2.372       .  S
Zr147       O154   2.357       .  S
Zr148       O174   2.436       .  S
Zr148       O175   2.436       .  S
Zr148      O1446   2.436       .  S
Zr148       O151   2.432       .  S
Zr148      O1437   2.363       .  S
Zr148      O1448   2.401       .  S
O149        H186   0.990       .  S
O150      Zr1444   2.436   1_554  S
O150        H181   0.989       .  S
O150        H195   0.990       .  S
O152      Zr1441   2.418       .  S
O152      Zr1444   2.401   1_554  S
O152        H178   0.963       .  S
O153       Zr163   2.397       .  S
O153      Zr1441   2.364       .  S
O154      Zr1459   2.361       .  S
O154        H179   0.964       .  S
C155       O1436   1.294       .  A
C155       C2429   1.514       .  S
C156       C1270   1.499       .  S
C157       C1259   1.485       .  S
O158        H194   0.990       .  S
O159        C161   1.299       .  A
O160      Zr1441   2.368       .  S
O160        C161   1.271       .  A
C161       C1088   1.496       .  S
O162       Zr163   2.440       .  S
O162        H191   0.990       .  S
Zr163       O166   2.437       .  S
Zr163      O1463   2.439       .  S
Zr163       O168   2.395       .  S
Zr163      O1440   2.398   1_554  S
Zr163      O1450   2.361   1_554  S
O164        C169   1.286       .  A
O165        H182   0.990       .  S
O165        H197   0.991       .  S
O166        H183   0.991       .  S
O167      Zr1459   2.439       .  S
O167        H187   0.990       .  S
O167        H196   0.990       .  S
O168       C1465   1.276       .  A
C169       O1464   1.276       .  A
C169       C2412   1.462       .  S
O170        H189   0.990       .  S
O170        H193   0.991       .  S
O171        H185   0.991       .  S
O171        H192   0.984       .  S
O172        C176   1.271       .  A
O173        C176   1.273       .  A
O174        H184   0.991       .  S
O175        H188   0.990       .  S
C176       C1102   1.454       .  S
Zr199       O200   2.434       .  S
Zr199       O201   2.411       .  S
Zr199       O202   2.502       .  S
Zr199      O1501   2.506   1_554  S
Zr199       O207   2.381       .  S
Zr199       O208   2.412   1_554  S
Zr199       O209   2.421       .  S
Zr199      O1506   2.372   1_554  S
O200        H256   0.990       .  S
O200        H264   0.990       .  S
O201        C221   1.282       .  A
O202        C223   1.290       .  A
O203       Zr213   2.424       .  S
O203        C222   1.286       .  A
O204       Zr212   2.391       .  S
O204        C223   1.264       .  A
O205      Zr1495   2.506       .  S
O205        C222   1.303       .  A
O206       Zr214   2.477       .  S
O206        C221   1.293       .  A
O207       Zr212   2.394       .  S
O207       Zr214   2.361       .  S
O208       Zr214   2.374   1_556  S
O208      Zr1509   2.407       .  S
O208       H1539   0.965       .  S
O209       Zr212   2.416       .  S
O209       Zr229   2.401   1_554  S
O209        H246   0.966       .  S
O210       Zr213   2.378       .  S
O210      Zr1495   2.372       .  S
O210      Zr1525   2.345       .  S
Zr211       O236   2.446       .  S
Zr211       O230   2.449       .  S
Zr211       O238   2.394   1_554  S
Zr211       O226   2.388       .  S
Zr211       O217   2.403       .  S
Zr211       O218   2.412       .  S
Zr211       O219   2.363       .  S
Zr211       O220   2.378   1_554  S
Zr212       O231   2.441       .  S
Zr212       O224   2.431       .  S
Zr212       O225   2.435       .  S
Zr212       O218   2.393       .  S
Zr212       O219   2.358       .  S
Zr213       O215   2.434       .  S
Zr213       O237   2.437       .  S
Zr213       O239   2.486       .  S
Zr213      O1504   2.407       .  S
Zr213      O1513   2.361       .  S
Zr213      O1516   2.402       .  S
Zr214       O240   2.435       .  S
Zr214       O241   2.439       .  S
Zr214       O216   2.432       .  S
Zr214       O217   2.380       .  S
Zr214       O218   2.445       .  S
O215        H252   0.989       .  S
O216        H247   0.990       .  S
O216        H261   0.990       .  S
O217      Zr1509   2.361   1_554  S
O218        H244   0.966       .  S
O219       Zr229   2.361   1_554  S
O220       Zr229   2.401       .  S
O220      Zr1509   2.402       .  S
O220       H1541   0.966       .  S
C221       C1074   1.485       .  S
C222       C1175   1.503       .  S
C223       C1186   1.488       .  S
O224        H260   0.990       .  S
O225        C227   1.284       .  A
O226        C227   1.275       .  A
C227       C1046   1.477       .  S
O228       Zr229   2.439       .  S
O228        H257   0.990       .  S
Zr229       O232   2.437   1_556  S
Zr229      O1529   2.439       .  S
Zr229       O234   2.390   1_556  S
Zr229      O1506   2.345       .  S
O230        C235   1.287       .  A
O231        H248   0.991       .  S
O231        H263   0.989       .  S
O232        H249   0.990       .  S
O233      Zr1525   2.439       .  S
O233        H253   0.991       .  S
O233        H262   0.989       .  S
O234        C235   1.275       .  A
C235       C1119   1.461       .  S
O236        H255   0.989       .  S
O236        H259   0.990       .  S
O237        H251   0.990       .  S
O237        H258   0.990       .  S
O238       C1538   1.273       .  A
O239        C242   1.289       .  A
O240        H250   0.990       .  S
O241        H254   0.990       .  S
C242       O1534   1.273       .  A
C242       C1060   1.500       .  S
H243       O1504   0.965       .  S
H245       O1516   0.966       .  S
Zr265       O266   2.436       .  S
Zr265       O267   2.412       .  S
Zr265       O268   2.498       .  S
Zr265      O1567   2.470   1_554  S
Zr265       O273   2.357       .  S
Zr265       O274   2.407   1_554  S
Zr265       O275   2.414       .  S
Zr265      O1572   2.387   1_554  S
O266        H322   0.990   1_554  S
O266        H330   0.990       .  S
O267        C287   1.284       .  A
O268        C289   1.292       .  A
O269       Zr279   2.456       .  S
O269        C288   1.291       .  A
O270       Zr278   2.394       .  S
O270        C289   1.267       .  A
O271      Zr1561   2.470       .  S
O271        C288   1.296       .  A
O272       Zr280   2.478       .  S
O272        C287   1.292       .  A
O273       Zr278   2.382       .  S
O273       Zr280   2.339       .  S
O274       Zr280   2.383   1_556  S
O274      Zr1575   2.414       .  S
O274       H1605   0.966       .  S
O275       Zr278   2.401       .  S
O275       Zr295   2.406   1_554  S
O275        H312   0.966       .  S
O276       Zr279   2.384       .  S
O276      Zr1561   2.387       .  S
O276      Zr1591   2.362       .  S
Zr277       O302   2.443   1_565  S
Zr277       O296   2.429       .  S
Zr277       O304   2.405   1_554  S
Zr277       O292   2.405       .  S
Zr277       O283   2.402       .  S
Zr277       O284   2.402       .  S
Zr277       O285   2.367       .  S
Zr277       O286   2.378   1_554  S
Zr278       O297   2.437       .  S
Zr278       O290   2.436       .  S
Zr278       O291   2.408       .  S
Zr278       O284   2.398       .  S
Zr278       O285   2.361       .  S
Zr279       O281   2.435       .  S
Zr279       O303   2.437       .  S
Zr279       O305   2.505       .  S
Zr279      O1570   2.414       .  S
Zr279      O1579   2.378       .  S
Zr279      O1582   2.396       .  S
Zr280       O306   2.435       .  S
Zr280       O307   2.434       .  S
Zr280       O282   2.436       .  S
Zr280       O283   2.396       .  S
Zr280       O284   2.431       .  S
O281        H318   0.990       .  S
O282        H313   0.990       .  S
O282        H327   0.989       .  S
O283      Zr1575   2.378   1_554  S
O284        H310   0.966       .  S
O285       Zr295   2.361   1_554  S
O286       Zr295   2.398       .  S
O286      Zr1575   2.396       .  S
O286       H1607   0.965       .  S
C287       C1032   1.496       .  S
C288       C1021   1.494       .  S
C289       C1007   1.497       .  S
O290        H326   0.989       .  S
O291        C293   1.281       .  A
O292        C293   1.279       .  A
C293       C1217   1.467       .  S
O294       Zr295   2.439       .  S
O294        H323   0.990       .  S
Zr295       O298   2.437   1_556  S
Zr295      O1595   2.440       .  S
Zr295       O300   2.409       .  S
Zr295      O1572   2.362       .  S
O296        C301   1.285       .  A
O297        H314   0.991       .  S
O297        H329   0.989       .  S
O298        H315   0.990       .  S
O299      Zr1591   2.440       .  S
O299        H319   0.991       .  S
O299        H328   0.989       .  S
O300        C301   1.280   1_556  A
C301        C993   1.470       .  S
O302        H321   0.989       .  S
O302        H325   0.990   1_545  S
O303        H317   0.990       .  S
O303        H324   0.990       .  S
O304       C1604   1.277   1_565  A
O305        C308   1.293   1_565  A
O306        H316   0.990       .  S
O307        H320   0.990       .  S
C308       O1600   1.277   1_545  A
C308       C1130   1.518       .  S
H309       O1570   0.966       .  S
H311       O1582   0.965       .  S
Zr331       O332   2.437       .  S
Zr331       O333   2.420       .  S
Zr331       O334   2.486       .  S
Zr331      O1633   2.485   1_554  S
Zr331       O339   2.398       .  S
Zr331       O341   2.412       .  S
Zr331      O1636   2.401   1_554  S
Zr331      O1638   2.417       .  S
O332        H388   0.990       .  S
O332        H396   0.990       .  S
O333        C353   1.283   1_554  A
O334        C355   1.298       .  A
O335       Zr345   2.407       .  S
O335        C354   1.270       .  A
O336       Zr344   2.424       .  S
O336        C355   1.285       .  A
O337      Zr1627   2.485       .  S
O337        C354   1.291       .  A
O338       Zr346   2.449       .  S
O338       C1649   1.286       .  A
O339       Zr344   2.410       .  S
O339      Zr1642   2.385   1_554  S
O340       Zr345   2.386       .  S
O340       Zr346   2.334       .  S
O340      Zr1627   2.401       .  S
O340        H375   0.961       .  S
O341       Zr344   2.412       .  S
O341       Zr361   2.361       .  S
O341        H378   0.963       .  S
O342       Zr345   2.401       .  S
O342      Zr1627   2.417       .  S
O342      Zr1657   2.398       .  S
Zr343       O368   2.442   1_545  S
Zr343       O362   2.437       .  S
Zr343       O370   2.386       .  S
Zr343      O1654   2.418   1_545  S
Zr343       O349   2.409       .  S
Zr343       O352   2.374       .  S
Zr343      O1646   2.400       .  S
Zr343      O1647   2.367       .  S
Zr344       O363   2.434       .  S
Zr344       O356   2.435       .  S
Zr344       O357   2.478       .  S
Zr344       O350   2.384       .  S
Zr344       O351   2.397       .  S
Zr345       O347   2.435       .  S
Zr345       O369   2.437       .  S
Zr345       O371   2.404       .  S
Zr345       O349   2.394       .  S
Zr345       O352   2.374       .  S
Zr346       O372   2.436       .  S
Zr346       O373   2.436       .  S
Zr346      O1644   2.436       .  S
Zr346       O349   2.417       .  S
Zr346      O1635   2.385       .  S
Zr346      O1646   2.370       .  S
O347        H384   0.989       .  S
O348      Zr1642   2.436   1_554  S
O348        H379   0.990   1_554  S
O348        H393   0.990       .  S
O350      Zr1639   2.400   1_554  S
O350      Zr1642   2.370   1_554  S
O350        H376   0.963       .  S
O351       Zr361   2.397       .  S
O351      Zr1639   2.367   1_554  S
O352      Zr1657   2.365       .  S
O352        H377   0.965       .  S
C353       O1634   1.286       .  A
C353       C2272   1.488       .  S
C354        C951   1.502       .  S
C355        C965   1.491       .  S
O356        H392   0.990       .  S
O357        C359   1.293   1_545  A
O358      Zr1639   2.418   1_564  S
O358        C359   1.281       .  A
C359       C1077   1.480       .  S
O360       Zr361   2.440       .  S
O360        H389   0.990       .  S
Zr361       O364   2.437       .  S
Zr361      O1661   2.438       .  S
Zr361       O366   2.400       .  S
Zr361      O1638   2.398       .  S
Zr361      O1648   2.365   1_554  S
O362        C367   1.285       .  A
O363        H380   0.990       .  S
O363        H395   0.990       .  S
O364        H381   0.990       .  S
O365      Zr1657   2.438       .  S
O365        H385   0.990       .  S
O365        H394   0.990       .  S
O366       C1663   1.278       .  A
C367       O1662   1.278       .  A
C367       C2286   1.470       .  S
O368        H387   0.990       .  S
O368        H391   0.991       .  S
O369        H383   0.989       .  S
O369        H390   0.988       .  S
O370        C374   1.274       .  A
O371        C374   1.278       .  A
O372        H382   0.990       .  S
O373        H386   0.990       .  S
C374       C1147   1.437       .  S
Zr397       O398   2.437       .  S
Zr397       O399   2.437       .  S
Zr397       O400   2.487       .  S
Zr397       O403   2.511       .  S
Zr397       O405   2.376       .  S
Zr397       O406   2.404       .  S
Zr397       O407   2.425       .  S
Zr397       O408   2.383       .  S
O398        H454   0.990       .  S
O398        H462   0.990       .  S
O399        C419   1.288       .  A
O400        C421   1.290       .  A
O401       Zr411   2.418       .  S
O401        C420   1.284       .  A
O402       Zr410   2.398       .  S
O402        C421   1.269       .  A
O403        C420   1.303       .  A
O404       Zr412   2.473       .  S
O404        C419   1.291       .  A
O405       Zr410   2.390       .  S
O405       Zr412   2.343       .  S
O406       Zr411   2.410       .  S
O406       Zr412   2.384       .  S
O406        H441   0.965       .  S
O407       Zr410   2.415       .  S
O407       Zr427   2.403       .  S
O407        H444   0.966       .  S
O408       Zr411   2.383       .  S
O408       Zr427   2.365       .  S
Zr409       O434   2.444       .  S
Zr409       O428   2.436       .  S
Zr409       O436   2.397       .  S
Zr409       O424   2.388       .  S
Zr409       O415   2.402       .  S
Zr409       O416   2.404       .  S
Zr409       O417   2.365       .  S
Zr409       O418   2.368       .  S
Zr410       O429   2.435       .  S
Zr410       O422   2.435       .  S
Zr410       O423   2.445       .  S
Zr410       O416   2.395       .  S
Zr410       O417   2.364       .  S
Zr411       O413   2.436       .  S
Zr411       O435   2.438       .  S
Zr411       O437   2.476       .  S
Zr411       O415   2.372       .  S
Zr411       O418   2.394       .  S
Zr412       O438   2.435       .  S
Zr412       O439   2.434       .  S
Zr412       O414   2.436       .  S
Zr412       O415   2.401       .  S
Zr412       O416   2.426       .  S
O413        H450   0.989       .  S
O414        H445   0.990       .  S
O414        H459   0.990       .  S
O416        H442   0.966       .  S
O417       Zr427   2.366       .  S
O418       Zr427   2.395       .  S
O418        H443   0.965       .  S
C419       C1158   1.502       .  S
C420        C948   1.505       .  S
C421        C962   1.491       .  S
O422        H458   0.990       .  S
O423        C425   1.286       .  A
O424        C425   1.277       .  A
C425        C906   1.488       .  S
O426       Zr427   2.440       .  S
O426        H455   0.990       .  S
Zr427       O430   2.437       .  S
Zr427       O431   2.440       .  S
Zr427       O432   2.413       .  S
O428        C433   1.284       .  A
O429        H446   0.990       .  S
O429        H461   0.990       .  S
O430        H447   0.990       .  S
O431        H451   0.990       .  S
O431        H460   0.989       .  S
O432        C433   1.281       .  A
C433        C934   1.488       .  S
O434        H453   0.989   1_655  S
O434        H457   0.990       .  S
O435        H449   0.990       .  S
O435        H456   0.989       .  S
O436        C440   1.277       .  A
O437        C440   1.288       .  A
O438        H448   0.990       .  S
O439        H452   0.990       .  S
C440        C923   1.502   1_655  S
Zr463       O464   2.438       .  S
Zr463       O465   2.444       .  S
Zr463       O466   2.504       .  S
Zr463       O469   2.508       .  S
Zr463       O471   2.403       .  S
Zr463       O472   2.401       .  S
Zr463       O473   2.421       .  S
Zr463       O474   2.418       .  S
O464        H520   0.990       .  S
O464        H528   0.991       .  S
O465        C485   1.289       .  A
O466        C487   1.301       .  A
O467       Zr477   2.406       .  S
O467        C486   1.271       .  A
O468       Zr476   2.420       .  S
O468        C487   1.285       .  A
O469        C486   1.293       .  A
O470       Zr478   2.453       .  S
O470        C485   1.286       .  A
O471       Zr476   2.418       .  S
O471       Zr478   2.380       .  S
O472       Zr477   2.404       .  S
O472       Zr478   2.360       .  S
O472        H507   0.965       .  S
O473       Zr476   2.423       .  S
O473       Zr493   2.360       .  S
O473        H510   0.962       .  S
O474       Zr477   2.410       .  S
O474       Zr493   2.398       .  S
Zr475       O500   2.437   1_455  S
Zr475       O494   2.435       .  S
Zr475       O502   2.379       .  S
Zr475       O490   2.406   1_455  S
Zr475       O481   2.400       .  S
Zr475       O482   2.407       .  S
Zr475       O483   2.364       .  S
Zr475       O484   2.365       .  S
Zr476       O495   2.435       .  S
Zr476       O488   2.435       .  S
Zr476       O489   2.498       .  S
Zr476       O482   2.387       .  S
Zr476       O483   2.390       .  S
Zr477       O479   2.440       .  S
Zr477       O501   2.444       .  S
Zr477       O503   2.446       .  S
Zr477       O481   2.375       .  S
Zr477       O484   2.361       .  S
Zr478       O504   2.436       .  S
Zr478       O505   2.435       .  S
Zr478       O480   2.437       .  S
Zr478       O481   2.421       .  S
Zr478       O482   2.389       .  S
O479        H516   0.990       .  S
O480        H511   0.990       .  S
O480        H525   0.990       .  S
O482        H508   0.964       .  S
O483       Zr493   2.385       .  S
O484       Zr493   2.352       .  S
O484        H509   0.964       .  S
C485       C1231   1.495       .  S
C486       C1018   1.507       .  S
C487       C1004   1.495       .  S
O488        H524   0.990       .  S
O489        C491   1.292   1_455  A
O490        C491   1.274       .  A
C491        C892   1.507       .  S
O492       Zr493   2.440       .  S
O492        H521   0.990       .  S
Zr493       O496   2.437       .  S
Zr493       O497   2.439       .  S
Zr493       O498   2.419       .  S
O494        C499   1.285       .  A
O495        H512   0.990       .  S
O495        H527   0.991       .  S
O496        H513   0.990       .  S
O497        H517   0.990       .  S
O497        H526   0.990       .  S
O498        C499   1.283       .  A
C499        C937   1.488       .  S
O500        H519   0.990       .  S
O500        H523   0.990       .  S
O501        H515   0.989       .  S
O501        H522   0.989       .  S
O502        C506   1.277       .  A
O503        C506   1.286       .  A
O504        H514   0.990       .  S
O505        H518   0.989       .  S
C506        C878   1.477       .  S
Zr529       O530   2.436       .  S
Zr529       O531   2.415       .  S
Zr529       O532   2.479       .  S
Zr529      O1831   2.494   1_554  S
Zr529       O537   2.396       .  S
Zr529       O539   2.415       .  S
Zr529      O1834   2.403   1_554  S
Zr529      O1836   2.416   1_554  S
O530        H586   0.990       .  S
O530        H594   0.990       .  S
O531        C551   1.283       .  A
O532        C553   1.296       .  A
O533       Zr543   2.400       .  S
O533        C552   1.267       .  A
O534       Zr542   2.422       .  S
O534        C553   1.285       .  A
O535      Zr1825   2.494       .  S
O535        C552   1.289       .  A
O536       Zr544   2.473       .  S
O536       C1847   1.290       .  A
O537       Zr542   2.409       .  S
O537      Zr1840   2.378   1_554  S
O538       Zr543   2.398       .  S
O538       Zr544   2.342       .  S
O538      Zr1825   2.403       .  S
O538        H573   0.959       .  S
O539       Zr542   2.413       .  S
O539       Zr559   2.360       .  S
O539        H576   0.963       .  S
O540       Zr543   2.407       .  S
O540      Zr1825   2.416       .  S
O540      Zr1855   2.399       .  S
Zr541       O566   2.443   1_655  S
Zr541       O560   2.443       .  S
Zr541       O568   2.395       .  S
Zr541      O1852   2.409       .  S
Zr541       O547   2.409       .  S
Zr541       O550   2.371       .  S
Zr541      O1844   2.401       .  S
Zr541      O1845   2.371       .  S
Zr542       O561   2.435       .  S
Zr542       O554   2.435       .  S
Zr542       O555   2.479       .  S
Zr542       O548   2.384       .  S
Zr542       O549   2.391       .  S
Zr543       O545   2.436       .  S
Zr543       O567   2.443       .  S
Zr543       O569   2.429       .  S
Zr543       O547   2.391       .  S
Zr543       O550   2.373       .  S
Zr544       O570   2.435       .  S
Zr544       O571   2.439       .  S
Zr544      O1842   2.437       .  S
Zr544       O547   2.431       .  S
Zr544      O1833   2.378       .  S
Zr544      O1844   2.384       .  S
O545        H582   0.989       .  S
O546      Zr1840   2.437   1_554  S
O546        H577   0.989       .  S
O546        H591   0.991       .  S
O548      Zr1837   2.401   1_554  S
O548      Zr1840   2.384   1_554  S
O548        H574   0.963       .  S
O549       Zr559   2.390       .  S
O549      Zr1837   2.371   1_554  S
O550      Zr1855   2.352       .  S
O550        H575   0.965       .  S
C551       O1832   1.290   1_554  A
C551       C2359   1.501   1_554  S
C552        C850   1.502       .  S
C553        C864   1.495       .  S
O554        H590   0.990       .  S
O555        C557   1.293       .  A
O556      Zr1837   2.409   1_554  S
O556        C557   1.282       .  A
C557       C1035   1.492   1_655  S
O558       Zr559   2.439       .  S
O558        H587   0.990       .  S
Zr559       O562   2.437       .  S
Zr559      O1859   2.440       .  S
Zr559       O564   2.414       .  S
Zr559      O1836   2.399   1_554  S
Zr559      O1846   2.352   1_554  S
O560        C565   1.286       .  A
O561        H578   0.990       .  S
O561        H593   0.990       .  S
O562        H579   0.990       .  S
O563      Zr1855   2.440       .  S
O563        H583   0.990       .  S
O563        H592   0.990       .  S
O564       C1861   1.281       .  A
C565       O1860   1.281       .  A
C565       C2132   1.494       .  S
O566        H585   0.990   1_455  S
O566        H589   0.991       .  S
O567        H581   0.989       .  S
O567        H588   0.988       .  S
O568        C572   1.279       .  A
O569        C572   1.283       .  A
O570        H580   0.991       .  S
O571        H584   0.990       .  S
C572        C881   1.474       .  S
Zr595       O596   2.436   1_554  S
Zr595       O597   2.449       .  S
Zr595       O598   2.495       .  S
Zr595      O1897   2.526   1_554  S
Zr595       O603   2.378       .  S
Zr595       O604   2.402   1_554  S
Zr595       O605   2.429       .  S
Zr595      O1902   2.388   1_554  S
O596        H652   0.990       .  S
O596        H660   0.990   1_556  S
O597        C617   1.290       .  A
O598        C619   1.293       .  A
O599       Zr609   2.414       .  S
O599        C618   1.283       .  A
O600       Zr608   2.392       .  S
O600        C619   1.268       .  A
O601      Zr1891   2.526       .  S
O601        C618   1.306       .  A
O602       Zr610   2.465       .  S
O602        C617   1.289       .  A
O603       Zr608   2.391       .  S
O603       Zr610   2.345       .  S
O604       Zr610   2.385   1_556  S
O604      Zr1905   2.409       .  S
O604       H1935   0.966       .  S
O605       Zr608   2.415       .  S
O605       Zr625   2.405   1_554  S
O605        H642   0.966       .  S
O606       Zr609   2.382       .  S
O606      Zr1891   2.388       .  S
O606      Zr1921   2.368       .  S
Zr607       O632   2.444   1_455  S
Zr607       O626   2.440       .  S
Zr607       O634   2.393   1_454  S
Zr607       O622   2.390       .  S
Zr607       O613   2.402       .  S
Zr607       O614   2.402       .  S
Zr607       O615   2.363       .  S
Zr607       O616   2.372   1_554  S
Zr608       O627   2.436       .  S
Zr608       O620   2.433       .  S
Zr608       O621   2.443       .  S
Zr608       O614   2.392       .  S
Zr608       O615   2.358       .  S
Zr609       O611   2.436       .  S
Zr609       O633   2.438       .  S
Zr609       O635   2.467       .  S
Zr609      O1900   2.409       .  S
Zr609      O1909   2.373       .  S
Zr609      O1912   2.393       .  S
Zr610       O636   2.435       .  S
Zr610       O637   2.435       .  S
Zr610       O612   2.438       .  S
Zr610       O613   2.399       .  S
Zr610       O614   2.425       .  S
O611        H648   0.990       .  S
O612        H643   0.990       .  S
O612        H657   0.990       .  S
O613      Zr1905   2.373   1_554  S
O614        H640   0.966       .  S
O615       Zr625   2.365   1_554  S
O616       Zr625   2.392       .  S
O616      Zr1905   2.393       .  S
O616       H1937   0.965       .  S
C617       C1091   1.505       .  S
C618        C825   1.513       .  S
C619        C808   1.499       .  S
O620        H656   0.989       .  S
O621        C623   1.286       .  A
O622        C623   1.277       .  A
C623        C909   1.486       .  S
O624       Zr625   2.439       .  S
O624        H653   0.990       .  S
Zr625       O628   2.437   1_556  S
Zr625      O1925   2.440       .  S
Zr625       O630   2.417       .  S
Zr625      O1902   2.368       .  S
O626        C631   1.286       .  A
O627        H644   0.990       .  S
O627        H659   0.989       .  S
O628        H645   0.990   1_554  S
O629      Zr1921   2.440       .  S
O629        H649   0.991       .  S
O629        H658   0.989       .  S
O630        C631   1.282   1_556  A
C631        C839   1.492       .  S
O632        H651   0.990       .  S
O632        H655   0.990       .  S
O633        H647   0.989       .  S
O633        H654   0.990       .  S
O634       C1934   1.277       .  A
O635        C638   1.287   1_455  A
O636        H646   0.990       .  S
O637        H650   0.990       .  S
C638       O1930   1.277       .  A
C638        C979   1.493       .  S
H639       O1900   0.966       .  S
H641       O1912   0.965       .  S
Zr661       O662   2.437       .  S
Zr661       O663   2.420       .  S
Zr661       O664   2.483       .  S
Zr661       O667   2.497       .  S
Zr661       O669   2.401       .  S
Zr661       O670   2.398       .  S
Zr661       O671   2.415       .  S
Zr661       O672   2.417       .  S
O662        H718   0.990       .  S
O662        H726   0.990       .  S
O663        C683   1.283       .  A
O664        C685   1.298       .  A
O665       Zr675   2.396       .  S
O665        C684   1.267       .  A
O666       Zr674   2.433       .  S
O666        C685   1.286       .  A
O667        C684   1.291       .  A
O668       Zr676   2.458       .  S
O668        C683   1.288       .  A
O669       Zr674   2.411       .  S
O669       Zr676   2.383       .  S
O670       Zr675   2.384       .  S
O670       Zr676   2.341       .  S
O670        H705   0.962       .  S
O671       Zr674   2.416       .  S
O671       Zr691   2.357       .  S
O671        H708   0.962       .  S
O672       Zr675   2.398       .  S
O672       Zr691   2.402       .  S
Zr673       O698   2.447       .  S
Zr673       O692   2.438       .  S
Zr673       O700   2.400       .  S
Zr673       O688   2.425       .  S
Zr673       O679   2.408       .  S
Zr673       O680   2.403       .  S
Zr673       O681   2.371       .  S
Zr673       O682   2.374       .  S
Zr674       O693   2.435       .  S
Zr674       O686   2.435       .  S
Zr674       O687   2.491       .  S
Zr674       O680   2.385       .  S
Zr674       O681   2.394       .  S
Zr675       O677   2.432       .  S
Zr675       O699   2.439       .  S
Zr675       O701   2.387       .  S
Zr675       O679   2.393       .  S
Zr675       O682   2.370       .  S
Zr676       O702   2.436       .  S
Zr676       O703   2.436       .  S
Zr676       O678   2.437       .  S
Zr676       O679   2.421       .  S
Zr676       O680   2.383       .  S
O677        H714   0.990       .  S
O678        H709   0.990       .  S
O678        H723   0.990       .  S
O680        H706   0.964       .  S
O681       Zr691   2.394       .  S
O682       Zr691   2.351       .  S
O682        H707   0.964       .  S
C683        C920   1.495       .  S
C684        C822   1.509       .  S
C685        C811   1.501       .  S
O686        H722   0.990       .  S
O687        C689   1.295       .  A
O688        C689   1.284       .  A
C689       C1287   1.497       .  S
O690       Zr691   2.440       .  S
O690        H719   0.990       .  S
Zr691       O694   2.437       .  S
Zr691       O695   2.439       .  S
Zr691       O696   2.408       .  S
O692        C697   1.285       .  A
O693        H710   0.990       .  S
O693        H725   0.990       .  S
O694        H711   0.990       .  S
O695        H715   0.990       .  S
O695        H724   0.990       .  S
O696        C697   1.280       .  A
C697        C797   1.476       .  S
O698        H717   0.990       .  S
O698        H721   0.991       .  S
O699        H713   0.990       .  S
O699        H720   0.987       .  S
O700        C704   1.279       .  A
O701        C704   1.275       .  A
O702        H712   0.990       .  S
O703        H716   0.990       .  S
C704       C1105   1.434       .  S
Zr727       O728   2.434       .  S
Zr727       O729   2.416       .  S
Zr727       O730   2.473       .  S
Zr727       O733   2.475       .  S
Zr727       O735   2.371       .  S
Zr727       O736   2.402       .  S
Zr727       O737   2.414       .  S
Zr727       O738   2.391       .  S
O728        H784   0.990       .  S
O728        H792   0.990       .  S
O729        C749   1.284       .  A
O730        C751   1.289       .  A
O731       Zr741   2.423       .  S
O731        C750   1.286       .  A
O732       Zr740   2.399       .  S
O732        C751   1.270       .  A
O733        C750   1.294       .  A
O734       Zr742   2.471       .  S
O734        C749   1.290       .  A
O735       Zr740   2.388       .  S
O735       Zr742   2.350       .  S
O736       Zr741   2.403       .  S
O736       Zr742   2.383       .  S
O736        H771   0.965       .  S
O737       Zr740   2.405       .  S
O737       Zr757   2.401       .  S
O737        H774   0.966       .  S
O738       Zr741   2.389       .  S
O738       Zr757   2.366       .  S
Zr739       O764   2.444       .  S
Zr739       O758   2.437       .  S
Zr739       O766   2.393       .  S
Zr739       O754   2.396       .  S
Zr739       O745   2.399       .  S
Zr739       O746   2.403       .  S
Zr739       O747   2.366       .  S
Zr739       O748   2.372       .  S
Zr740       O759   2.437       .  S
Zr740       O752   2.435       .  S
Zr740       O753   2.424       .  S
Zr740       O746   2.398       .  S
Zr740       O747   2.363       .  S
Zr741       O743   2.436       .  S
Zr741       O765   2.437       .  S
Zr741       O767   2.477       .  S
Zr741       O745   2.377       .  S
Zr741       O748   2.388       .  S
Zr742       O768   2.435       .  S
Zr742       O769   2.435       .  S
Zr742       O744   2.437       .  S
Zr742       O745   2.401       .  S
Zr742       O746   2.428       .  S
O743        H780   0.990       .  S
O744        H775   0.990       .  S
O744        H789   0.990       .  S
O746        H772   0.966       .  S
O747       Zr757   2.362       .  S
O748       Zr757   2.392       .  S
O748        H773   0.966       .  S
C749        C895   1.506       .  S
C750        C853   1.492       .  S
C751        C867   1.494       .  S
O752        H788   0.989       .  S
O753        C755   1.284       .  A
O754        C755   1.278       .  A
C755       C1049   1.475       .  S
O756       Zr757   2.437       .  S
O756        H785   0.990       .  S
Zr757       O760   2.438       .  S
Zr757       O761   2.438       .  S
Zr757       O762   2.400       .  S
O758        C763   1.284       .  A
O759        H776   0.990       .  S
O759        H791   0.989       .  S
O760        H777   0.990       .  S
O761        H781   0.989       .  S
O761        H790   0.990       .  S
O762        C763   1.279       .  A
C763        C794   1.475       .  S
O764        H783   0.991       .  S
O764        H787   0.990       .  S
O765        H779   0.990       .  S
O765        H786   0.990       .  S
O766        C770   1.279       .  A
O767        C770   1.291       .  A
O768        H778   0.990       .  S
O769        H782   0.990       .  S
C770       C1203   1.493       .  S
C793        C794   1.406       .  A
C793        C798   1.396       .  A
C793        H800   1.084       .  S
C794        C795   1.411       .  A
C795        C796   1.402       .  A
C795        N802   1.434       .  S
C796        C797   1.408       .  A
C796        H801   1.084       .  S
C797        C798   1.407       .  A
C798        N799   1.431       .  S
N799        O803   1.262       .  A
N799        O804   1.262       .  A
N802        O805   1.262       .  A
N802        O806   1.262       .  A
C807        C808   1.403       .  A
C807        C812   1.403       .  A
C807        H814   1.080       .  S
C808        C809   1.423       .  A
C809        C810   1.409       .  A
C809        N816   1.438       .  S
C810        C811   1.407       .  A
C810        H815   1.083       .  S
C811        C812   1.422       .  A
C812        N813   1.433       .  S
N813        O817   1.262       .  A
N813        O818   1.263       .  A
N816        O819   1.263       .  A
N816        O820   1.263       .  A
C821        C822   1.402       .  A
C821        C826   1.406       .  A
C821        H828   1.083       .  S
C822        C823   1.426       .  A
C823        C824   1.421       .  A
C823        N830   1.440       .  S
C824        C825   1.407       .  A
C824        H829   1.083       .  S
C825        C826   1.427       .  A
C826        N827   1.436       .  S
N827        O831   1.263       .  A
N827        O832   1.262       .  A
N830        O833   1.263       .  A
N830        O834   1.263       .  A
C835        C836   1.411       .  A
C835        C840   1.403       .  A
C835        H842   1.083       .  S
C836       C1861   1.494       .  S
C836        C837   1.415   1_655  A
C837        C838   1.403       .  A
C837       N2140   1.435       .  S
C838        C839   1.410       .  A
C838        H843   1.083   1_554  S
C839        C840   1.415   1_455  A
C840        N841   1.436       .  S
N841        O845   1.263       .  A
N841        O846   1.263   1_554  A
N844       C2133   1.435       .  S
N844        O848   1.263       .  A
N844       O2143   1.263       .  A
O847       N2140   1.263       .  A
C849        C850   1.411       .  A
C849        C854   1.419       .  A
C849        H856   1.083       .  S
C850        C851   1.411       .  A
C851        C852   1.394       .  A
C851        N858   1.421       .  S
C852        C853   1.401       .  A
C852        H857   1.085       .  S
C853        C854   1.421       .  A
C854        N855   1.440       .  S
N855        O859   1.263       .  A
N855        O860   1.262       .  A
N858        O861   1.263       .  A
N858        O862   1.257       .  A
C863        C864   1.405       .  A
C863        C868   1.409       .  A
C863        H870   1.083       .  S
C864        C865   1.419       .  A
C865        C866   1.401       .  A
C865        N872   1.434       .  S
C866        C867   1.404       .  A
C866        H871   1.083       .  S
C867        C868   1.422       .  A
C868        N869   1.439       .  S
N869        O873   1.263       .  A
N869        O874   1.263       .  A
N872        O875   1.262       .  A
N872        O876   1.262       .  A
C877        C878   1.407   1_655  A
C877        C882   1.392       .  A
C877        H884   1.082       .  S
C878        C879   1.409       .  A
C879        C880   1.397   1_455  A
C879        N886   1.436       .  S
C880        C881   1.408       .  A
C880        H885   1.084   1_655  S
C881        C882   1.410       .  A
C882        N883   1.434       .  S
N883        O887   1.263       .  A
N883        O888   1.262       .  A
N886        O889   1.263       .  A
N886        O890   1.263       .  A
C891        C892   1.408       .  A
C891        C896   1.395       .  A
C891        H898   1.081       .  S
C892        C893   1.419       .  A
C893        C894   1.423       .  A
C893        N900   1.438       .  S
C894        C895   1.415       .  A
C894        H899   1.083       .  S
C895        C896   1.416       .  A
C896        N897   1.438       .  S
N897        O901   1.263       .  A
N897        O902   1.263       .  A
N900        O903   1.263       .  A
N900        O904   1.263       .  A
C905        C906   1.411   1_455  A
C905        C910   1.397       .  A
C905        H912   1.083       .  S
C906        C907   1.413       .  A
C907        C908   1.401       .  A
C907        N914   1.436       .  S
C908        C909   1.411   1_655  A
C908        H913   1.084       .  S
C909        C910   1.411       .  A
C910        N911   1.434       .  S
N911        O915   1.262       .  A
N911        O916   1.263       .  A
N914        O917   1.263       .  A
N914        O918   1.263       .  A
C919        C920   1.410       .  A
C919        C924   1.417       .  A
C919        H926   1.083       .  S
C920        C921   1.414       .  A
C921        C922   1.393       .  A
C921        N928   1.431       .  S
C922        C923   1.408       .  A
C922        H927   1.084       .  S
C923        C924   1.420       .  A
C924        N925   1.435       .  S
N925        O929   1.262       .  A
N925        O930   1.262   1_455  A
N928        O931   1.262       .  A
N928        O932   1.262       .  A
C933        C934   1.409       .  A
C933        C938   1.400       .  A
C933        H940   1.084       .  S
C934        C935   1.413   1_655  A
C935        C936   1.399       .  A
C935        N942   1.432       .  S
C936        C937   1.409       .  A
C936        H941   1.084       .  S
C937        C938   1.413   1_455  A
C938        N939   1.431       .  S
N939        O943   1.262       .  A
N939        O944   1.262       .  A
N942        O945   1.262       .  A
N942        O946   1.262       .  A
C947        C948   1.407       .  A
C947        C952   1.418       .  A
C947        H954   1.083       .  S
C948        C949   1.423       .  A
C949        C950   1.404       .  A
C949        N956   1.436       .  S
C950        C951   1.403       .  A
C950        H955   1.082       .  S
C951        C952   1.423       .  A
C952        N953   1.439       .  S
N953        O957   1.263       .  A
N953        O958   1.263       .  A
N956        O959   1.263       .  A
N956        O960   1.262       .  A
C961        C962   1.405       .  A
C961        C966   1.406       .  A
C961        H968   1.081       .  S
C962        C963   1.418       .  A
C963        C964   1.411       .  A
C963        N970   1.440       .  S
C964        C965   1.406       .  A
C964        H969   1.084       .  S
C965        C966   1.418       .  A
C966        N967   1.439       .  S
N967        O971   1.263       .  A
N967        O972   1.263       .  A
N970        O973   1.263       .  A
N970        O974   1.263       .  A
C975        C976   1.408       .  A
C975        C980   1.413       .  A
C975        H982   1.084       .  S
C976       C1649   1.488       .  S
C976        C977   1.414       .  A
C977        C978   1.394       .  A
C977        N984   1.433       .  S
C978        C979   1.406       .  A
C978        H983   1.084       .  S
C979        C980   1.418       .  A
C980        N981   1.435       .  S
N981        O985   1.263       .  A
N981        O986   1.262       .  A
N984        O988   1.262       .  A
N984       O2283   1.262       .  A
O987       N2280   1.262   1_554  A
C989        C994   1.399       .  A
C989       C2286   1.406       .  A
C989        H996   1.084       .  S
C990       C1663   1.470       .  S
C990        C991   1.411   1_545  A
C990       C2285   1.406       .  A
C991        C992   1.402       .  A
C991        N998   1.440       .  S
C992        C993   1.406       .  A
C992        H997   1.084       .  S
C993       C2290   1.410   1_565  A
C994       C2289   1.410   1_545  A
C994        N995   1.440       .  S
N995        O999   1.263       .  A
N995       O1000   1.263       .  A
N998       O1001   1.263       .  A
N998       O1002   1.263       .  A
C1003      C1004   1.407       .  A
C1003      C1008   1.414       .  A
C1003      H1010   1.083       .  S
C1004      C1005   1.419       .  A
C1005      C1006   1.407       .  A
C1005      N1012   1.440       .  S
C1006      C1007   1.405       .  A
C1006      H1011   1.081       .  S
C1007      C1008   1.420       .  A
C1008      N1009   1.440       .  S
N1009      O1013   1.263       .  A
N1009      O1014   1.263       .  A
N1012      O1015   1.263       .  A
N1012      O1016   1.263       .  A
C1017      C1018   1.406       .  A
C1017      C1022   1.400       .  A
C1017      H1024   1.071       .  S
C1018      C1019   1.417       .  A
C1019      C1020   1.421       .  A
C1019      N1026   1.443       .  S
C1020      C1021   1.414       .  A
C1020      H1025   1.083       .  S
C1021      C1022   1.408       .  A
C1022      N1023   1.438       .  S
N1023      O1027   1.263       .  A
N1023      O1028   1.263       .  A
N1026      O1029   1.263       .  A
N1026      O1030   1.263       .  A
C1031      C1032   1.407       .  A
C1031      C1036   1.416       .  A
C1031      H1038   1.083       .  S
C1032      C1033   1.414       .  A
C1033      C1034   1.396       .  A
C1033      N1040   1.429       .  S
C1034      C1035   1.403       .  A
C1034      H1039   1.084       .  S
C1035      C1036   1.421       .  A
C1036      N1037   1.435       .  S
N1037      O1041   1.262       .  A
N1037      O1042   1.262   1_455  A
N1040      O1043   1.261       .  A
N1040      O1044   1.262       .  A
C1045      C1046   1.403       .  A
C1045      C1050   1.399       .  A
C1045      H1052   1.083       .  S
C1046      C1047   1.418       .  A
C1047      C1048   1.396       .  A
C1047      N1054   1.438       .  S
C1048      C1049   1.400       .  A
C1048      H1053   1.083       .  S
C1049      C1050   1.416       .  A
C1050      N1051   1.439       .  S
N1051      O1055   1.263       .  A
N1051      O1056   1.262       .  A
N1054      O1057   1.263       .  A
N1054      O1058   1.261       .  A
C1059      C1060   1.411       .  A
C1059      C1064   1.421       .  A
C1059      H1066   1.083       .  S
C1060      C1061   1.417       .  A
C1061      C1062   1.397       .  A
C1061      N1068   1.440       .  S
C1062      C1063   1.405       .  A
C1062      H2363   1.084       .  S
C1063      C1847   1.501       .  S
C1063      C1064   1.420       .  A
C1064      N1065   1.438       .  S
N1065      O1069   1.263       .  A
N1065      O2366   1.262       .  A
H1067      C2358   1.084   1_554  S
N1068      O1071   1.263       .  A
N1068      O2368   1.263       .  A
O1070      N2361   1.262   1_554  A
O1072      N2364   1.263   1_554  A
C1073      C1074   1.409       .  A
C1073      C1078   1.410       .  A
C1073      H1080   1.082       .  S
C1074      C1075   1.415       .  A
C1075      C1076   1.412       .  A
C1075      N2378   1.445   1_554  S
C1076      C1077   1.409       .  A
C1076      H2377   1.084       .  S
C1077      C1078   1.411       .  A
C1078      N1079   1.444       .  S
N1079      O1083   1.263       .  A
N1079      O1084   1.263       .  A
H1081      C2372   1.084       .  S
N1082      C2371   1.445       .  S
N1082      O1085   1.262       .  A
N1082      O1086   1.263       .  A
C1087      C1088   1.409       .  A
C1087      C1092   1.406       .  A
C1087      H1094   1.085       .  S
C1088      C1089   1.419       .  A
C1089      C1090   1.420       .  A
C1089      N1096   1.439       .  S
C1090      C1091   1.411       .  A
C1090      H1095   1.083       .  S
C1091      C1092   1.418       .  A
C1092      N1093   1.435       .  S
N1093      O1097   1.263       .  A
N1093      O1098   1.262       .  A
N1096      O1099   1.262       .  A
N1096      O2396   1.263       .  A
O1100      N2392   1.263       .  A
C1101      C1102   1.405       .  A
C1101      C1106   1.400       .  A
C1101      H1108   1.083       .  S
C1102      C1103   1.413       .  A
C1103      C1104   1.380       .  A
C1103      N1110   1.441       .  S
C1104      C1105   1.394       .  A
C1104      H1109   1.086       .  S
C1105      C1106   1.408       .  A
C1106      N1107   1.443       .  S
N1107      O1111   1.263       .  A
N1107      O1112   1.263       .  A
N1110      O1113   1.263       .  A
N1110      O1114   1.263       .  A
C1115      C1116   1.399       .  A
C1115      C1120   1.402       .  A
C1115      H1122   1.084       .  S
C1116      C1465   1.462       .  S
C1116      C2413   1.414   1_554  A
C1117      C1118   1.400       .  A
C1117      C2412   1.414       .  A
C1117      N1124   1.438       .  S
C1118      C2415   1.398       .  A
C1118      H1123   1.084       .  S
C1119      C1120   1.416       .  A
C1119      C2414   1.398   1_554  A
C1120      N1121   1.441       .  S
N1121      O1125   1.263       .  A
N1121      O1126   1.262       .  A
N1124      O1127   1.261       .  A
N1124      O1128   1.263       .  A
C1129      C1134   1.396   1_556  A
C1129      C2426   1.409       .  A
C1129      H1136   1.083   1_556  S
C1130      C1131   1.422       .  A
C1130      C2425   1.409       .  A
C1131      C1132   1.425       .  A
C1131      N1138   1.432       .  S
C1132      C1133   1.414       .  A
C1132      H1137   1.083       .  S
C1133      C1451   1.514       .  S
C1133      C2430   1.421       .  A
C1134      C2429   1.421   1_554  A
C1134      N1135   1.436       .  S
N1135      O1139   1.263       .  A
N1135      O1140   1.263       .  A
N1138      O1141   1.262   1_545  A
N1138      O1142   1.262       .  A
C1143      C1144   1.401       .  A
C1143      C1148   1.405   1_565  A
C1143      H1150   1.083       .  S
C1144      C1145   1.410       .  A
C1145      C1146   1.382   1_565  A
C1145      N1152   1.443       .  S
C1146      C1147   1.394       .  A
C1146      H1151   1.086       .  S
C1147      C1148   1.413       .  A
C1148      N1149   1.443       .  S
N1149      O1153   1.263   1_545  A
N1149      O1154   1.263       .  A
N1152      O1155   1.263   1_565  A
N1152      O1156   1.263       .  A
C1157      C1158   1.409       .  A
C1157      C1162   1.420       .  A
C1157      H1164   1.083       .  S
C1158      C1159   1.414       .  A
C1159      C1160   1.401       .  A
C1159      N1166   1.431       .  S
C1160      C1161   1.407       .  A
C1160      H1165   1.085       .  S
C1161      C1162   1.423       .  A
C1162      N1163   1.437       .  S
N1163      O1167   1.263       .  A
N1163      O1168   1.261   1_545  A
N1166      O1169   1.262       .  A
N1166      O1170   1.262       .  A
C1171      C1172   1.397       .  A
C1171      C1176   1.398       .  A
C1171      H1178   1.080       .  S
C1172      C1173   1.425       .  A
C1173      C1174   1.414       .  A
C1173      N1180   1.439       .  S
C1174      C1175   1.404       .  A
C1174      H1179   1.083       .  S
C1175      C1176   1.425       .  A
C1176      N1177   1.434       .  S
N1177      O1181   1.263       .  A
N1177      O1182   1.262       .  A
N1180      O1183   1.263       .  A
N1180      O1184   1.263       .  A
C1185      C1186   1.406       .  A
C1185      C1190   1.413       .  A
C1185      H1192   1.084       .  S
C1186      C1187   1.419       .  A
C1187      C1188   1.396       .  A
C1187      N1194   1.429       .  S
C1188      C1189   1.389       .  A
C1188      H1193   1.085       .  S
C1189      C1190   1.419       .  A
C1190      N1191   1.439       .  S
N1191      O1195   1.263       .  A
N1191      O1196   1.261       .  A
N1194      O1197   1.256       .  A
N1194      O1198   1.263       .  A
C1199      C1200   1.410       .  A
C1199      C1204   1.415       .  A
C1199      H1206   1.083       .  S
C1200      C1201   1.420       .  A
C1201      C1202   1.398       .  A
C1201      N1208   1.434       .  S
C1202      C1203   1.404       .  A
C1202      H1207   1.085       .  S
C1203      C1204   1.417       .  A
C1204      N1205   1.435       .  S
N1205      O1209   1.263       .  A
N1205      O1210   1.262       .  A
N1208      O1211   1.262       .  A
N1208      O1212   1.262       .  A
C1213      C1214   1.406       .  A
C1213      C1218   1.406       .  A
C1213      H1220   1.083       .  S
C1214      C1215   1.417   1_545  A
C1215      C1216   1.384       .  A
C1215      N1222   1.430       .  S
C1216      C1217   1.397       .  A
C1216      H1221   1.085       .  S
C1217      C1218   1.414   1_565  A
C1218      N1219   1.441       .  S
N1219      O1223   1.263       .  A
N1219      O1224   1.263       .  A
N1222      O1225   1.262       .  A
N1222      O1226   1.262       .  A
C1227      C1228   1.399       .  A
C1227      C1232   1.393       .  A
C1227      H1234   1.085       .  S
C1228      C1229   1.423       .  A
C1229      C1230   1.421       .  A
C1229      N1236   1.435       .  S
C1230      C1231   1.406       .  A
C1230      H1235   1.083       .  S
C1231      C1232   1.406       .  A
C1232      N1233   1.422       .  S
N1233      O1237   1.262       .  A
N1233      O1238   1.260       .  A
N1236      O1239   1.263       .  A
N1236      O1240   1.262   1_565  A
C1241      C1242   1.400       .  A
C1241      C1246   1.399       .  A
C1241      H1248   1.084       .  S
C1242      C1243   1.414       .  A
C1243      C1244   1.403       .  A
C1243      N1250   1.443       .  S
C1244      C1245   1.401   1_565  A
C1244      H1249   1.084   1_565  S
C1245      C1246   1.413   1_545  A
C1246      N1247   1.443   1_565  S
N1247      O1251   1.263       .  A
N1247      O1252   1.263   1_545  A
N1250      O1253   1.263       .  A
N1250      O1254   1.263       .  A
C1255      C1256   1.408       .  A
C1255      C1260   1.408       .  A
C1255      H1262   1.084       .  S
C1256      C1257   1.410       .  A
C1257      C1258   1.395       .  A
C1257      N1264   1.428       .  S
C1258      C1259   1.404       .  A
C1258      H1263   1.084       .  S
C1259      C1260   1.415       .  A
C1260      N1261   1.431       .  S
N1261      O1265   1.263       .  A
N1261      O1266   1.261       .  A
N1264      O1267   1.259       .  A
N1264      O1268   1.262       .  A
C1269      C1270   1.408       .  A
C1269      C1274   1.419       .  A
C1269      H1276   1.083       .  S
C1270      C1271   1.430       .  A
C1271      C1272   1.382       .  A
C1271      N1278   1.427       .  S
C1272      C1273   1.380       .  A
C1272      H1277   1.085       .  S
C1273      C1274   1.423       .  A
C1274      N1275   1.441       .  S
N1275      O1279   1.263       .  A
N1275      O1280   1.263       .  A
N1278      O1281   1.259       .  A
N1278      O1282   1.263       .  A
C1283      C1284   1.408       .  A
C1283      C1288   1.407       .  A
C1283      H1290   1.083       .  S
C1284      C1285   1.420       .  A
C1285      C1286   1.420       .  A
C1285      N1292   1.438       .  S
C1286      C1287   1.410       .  A
C1286      H1291   1.084       .  S
C1287      C1288   1.415       .  A
C1288      N1289   1.442       .  S
N1289      O1293   1.263       .  A
N1289      O1294   1.263       .  A
N1292      O1295   1.262       .  A
N1292      O1296   1.263       .  A
Zr1297     O1298   2.435       .  S
Zr1297     O1299   2.431       .  S
Zr1297     O1300   2.485       .  S
Zr1297     O1303   2.480       .  S
Zr1297     O1305   2.399       .  S
Zr1297     O1306   2.414       .  S
Zr1297     O1307   2.421       .  S
Zr1297     O1308   2.396       .  S
O1298      H1354   0.990       .  S
O1298      H1362   0.990       .  S
O1299      C1319   1.287       .  A
O1300      C1321   1.288       .  A
O1301     Zr1311   2.416       .  S
O1301      C1320   1.282       .  A
O1302     Zr1310   2.395       .  S
O1302      C1321   1.263       .  A
O1303      C1320   1.300       .  A
O1304     Zr1312   2.479       .  S
O1304      C1319   1.294       .  A
O1305     Zr1310   2.414       .  S
O1305     Zr1312   2.347       .  S
O1306     Zr1311   2.409       .  S
O1306     Zr1312   2.381       .  S
O1306      H1341   0.966       .  S
O1307     Zr1310   2.422       .  S
O1307     Zr1327   2.394       .  S
O1307      H1344   0.966       .  S
O1308     Zr1311   2.369       .  S
O1308     Zr1327   2.365       .  S
Zr1309     O1334   2.441   1_545  S
Zr1309     O1328   2.440       .  S
Zr1309     O1336   2.394   1_545  S
Zr1309     O1324   2.372       .  S
Zr1309     O1315   2.351       .  S
Zr1309     O1316   2.412       .  S
Zr1309     O1317   2.349       .  S
Zr1309     O1318   2.372       .  S
Zr1310     O1329   2.439       .  S
Zr1310     O1322   2.434       .  S
Zr1310     O1323   2.439       .  S
Zr1310     O1316   2.413       .  S
Zr1310     O1317   2.382       .  S
Zr1311     O1313   2.436       .  S
Zr1311     O1335   2.436       .  S
Zr1311     O1337   2.473       .  S
Zr1311     O1315   2.333       .  S
Zr1311     O1318   2.397       .  S
Zr1312     O1338   2.431       .  S
Zr1312     O1339   2.432       .  S
Zr1312     O1314   2.433       .  S
Zr1312     O1315   2.366       .  S
Zr1312     O1316   2.444       .  S
O1313      H1350   0.989       .  S
O1314      H1345   0.990       .  S
O1314      H1359   0.990       .  S
O1316      H1342   0.966       .  S
O1317     Zr1327   2.382       .  S
O1318     Zr1327   2.417       .  S
O1318      H1343   0.965       .  S
C1319      C2580   1.507       .  S
C1320      C2569   1.479       .  S
C1321      C2552   1.485       .  S
O1322      H1358   0.989       .  S
O1323      C1325   1.285       .  A
O1324      C1325   1.273       .  A
C1325      C2510   1.476       .  S
O1326     Zr1327   2.440       .  S
O1326      H1355   0.990       .  S
Zr1327     O1330   2.438       .  S
Zr1327     O1331   2.440       .  S
Zr1327     O1332   2.380       .  S
O1328      C1333   1.285       .  A
O1329      H1346   0.990       .  S
O1329      H1361   0.990       .  S
O1330      H1347   0.990       .  S
O1331      H1351   0.991       .  S
O1331      H1360   0.988       .  S
O1332      C1333   1.274       .  A
C1333      C2541   1.458       .  S
O1334      H1353   0.988       .  S
O1334      H1357   0.989       .  S
O1335      H1349   0.989       .  S
O1335      H1356   0.991       .  S
O1336      C1340   1.274       .  A
O1337      C1340   1.284   1_545  A
O1338      H1348   0.990       .  S
O1339      H1352   0.989       .  S
C1340      C2524   1.491       .  S
Zr1363     O1364   2.438       .  S
Zr1363     O1365   2.420       .  S
Zr1363     O1366   2.474       .  S
Zr1363     O1369   2.475       .  S
Zr1363     O1371   2.401       .  S
Zr1363     O1372   2.397       .  S
Zr1363     O1373   2.412       .  S
Zr1363     O1374   2.407       .  S
O1364      H1420   0.990       .  S
O1364      H1428   0.989       .  S
O1365      C1385   1.281       .  A
O1366      C1387   1.294       .  A
O1367     Zr1377   2.396       .  S
O1367      C1386   1.269       .  A
O1368     Zr1376   2.418       .  S
O1368      C1387   1.285       .  A
O1369      C1386   1.290       .  A
O1370     Zr1378   2.462       .  S
O1370      C1385   1.289       .  A
O1371     Zr1376   2.414       .  S
O1371     Zr1378   2.377       .  S
O1372     Zr1377   2.398       .  S
O1372     Zr1378   2.349       .  S
O1372      H1407   0.964       .  S
O1373     Zr1376   2.421       .  S
O1373     Zr1393   2.349       .  S
O1373      H1410   0.963       .  S
O1374     Zr1377   2.402       .  S
O1374     Zr1393   2.389       .  S
Zr1375     O1400   2.446   1_565  S
Zr1375     O1394   2.446       .  S
Zr1375     O1402   2.361       .  S
Zr1375     O1390   2.402       .  S
Zr1375     O1381   2.401       .  S
Zr1375     O1382   2.401       .  S
Zr1375     O1383   2.361       .  S
Zr1375     O1384   2.366       .  S
Zr1376     O1395   2.435       .  S
Zr1376     O1388   2.436       .  S
Zr1376     O1389   2.499       .  S
Zr1376     O1382   2.382       .  S
Zr1376     O1383   2.395       .  S
Zr1377     O1379   2.433       .  S
Zr1377     O1401   2.440       .  S
Zr1377     O1403   2.421       .  S
Zr1377     O1381   2.383       .  S
Zr1377     O1384   2.375       .  S
Zr1378     O1404   2.437       .  S
Zr1378     O1405   2.440       .  S
Zr1378     O1380   2.438       .  S
Zr1378     O1381   2.414       .  S
Zr1378     O1382   2.392       .  S
O1379      H1416   0.990       .  S
O1380      H1411   0.990       .  S
O1380      H1425   0.990       .  S
O1382      H1408   0.962       .  S
O1383     Zr1393   2.397       .  S
O1384     Zr1393   2.373       .  S
O1384      H1409   0.966       .  S
C1385      C2496   1.499       .  S
C1386      C2468   1.498       .  S
C1387      C2485   1.473       .  S
O1388      H1424   0.990       .  S
O1389      C1391   1.295       .  A
O1390      C1391   1.277       .  A
C1391      C2457   1.499   1_565  S
O1392     Zr1393   2.440       .  S
O1392      H1421   0.990       .  S
Zr1393     O1396   2.437       .  S
Zr1393     O1397   2.440       .  S
Zr1393     O1398   2.377       .  S
O1394      C1399   1.285       .  A
O1395      H1412   0.990       .  S
O1395      H1427   0.990       .  S
O1396      H1413   0.990       .  S
O1397      H1417   0.990       .  S
O1397      H1426   0.990       .  S
O1398      C1399   1.273       .  A
C1399      C2538   1.459       .  S
O1400      H1419   0.991       .  S
O1400      H1423   0.990       .  S
O1401      H1415   0.989       .  S
O1401      H1422   0.988       .  S
O1402      C1406   1.271       .  A
O1403      C1406   1.279       .  A
O1404      H1414   0.990       .  S
O1405      H1418   0.990       .  S
C1406      C2440   1.444       .  S
Zr1429     O1430   2.433       .  S
Zr1429     O1431   2.402       .  S
Zr1429     O1432   2.477       .  S
Zr1429     O1437   2.410       .  S
Zr1429     O1439   2.425       .  S
O1430      H1486   0.989       .  S
O1430      H1494   0.990       .  S
O1431      C1451   1.279       .  A
O1432      C1453   1.295       .  A
O1433     Zr1443   2.377       .  S
O1433      C1452   1.269       .  A
O1434     Zr1442   2.409       .  S
O1434      C1453   1.285       .  A
O1435      C1452   1.301       .  A
O1436     Zr1444   2.494       .  S
O1437     Zr1442   2.419       .  S
O1438     Zr1443   2.385       .  S
O1438     Zr1444   2.350       .  S
O1438      H1473   0.965       .  S
O1439     Zr1442   2.425       .  S
O1439     Zr1459   2.353       .  S
O1439      H1476   0.963       .  S
O1440     Zr1443   2.392       .  S
Zr1441     O1466   2.442   1_554  S
Zr1441     O1460   2.453       .  S
Zr1441     O1468   2.377   1_554  S
Zr1441     O1447   2.396   1_554  S
Zr1441     O1450   2.358   1_554  S
Zr1442     O1461   2.435       .  S
Zr1442     O1454   2.435       .  S
Zr1442     O1455   2.521       .  S
Zr1442     O1448   2.368       .  S
Zr1442     O1449   2.389       .  S
Zr1443     O1445   2.429       .  S
Zr1443     O1467   2.435       .  S
Zr1443     O1469   2.392       .  S
Zr1443     O1447   2.372       .  S
Zr1443     O1450   2.357       .  S
Zr1444     O1470   2.436       .  S
Zr1444     O1471   2.436       .  S
Zr1444     O1447   2.432       .  S
O1445      H1482   0.990       .  S
O1446      H1477   0.989       .  S
O1446      H1491   0.990       .  S
O1448      H1474   0.963       .  S
O1449     Zr1459   2.397       .  S
O1450      H1475   0.964       .  S
C1452      C2566   1.499       .  S
C1453      C2555   1.485       .  S
O1454      H1490   0.990       .  S
O1455      C1457   1.299       .  A
O1456      C1457   1.271       .  A
C1457      C2384   1.496       .  S
O1458     Zr1459   2.440       .  S
O1458      H1487   0.990       .  S
Zr1459     O1462   2.437       .  S
Zr1459     O1464   2.395       .  S
O1460      C1465   1.286       .  A
O1461      H1478   0.990       .  S
O1461      H1493   0.991       .  S
O1462      H1479   0.991       .  S
O1463      H1483   0.990       .  S
O1463      H1492   0.990   1_554  S
O1466      H1485   0.990       .  S
O1466      H1489   0.991       .  S
O1467      H1481   0.991       .  S
O1467      H1488   0.984       .  S
O1468      C1472   1.271       .  A
O1469      C1472   1.273       .  A
O1470      H1480   0.991       .  S
O1471      H1484   0.990       .  S
C1472      C2398   1.454       .  S
Zr1495     O1496   2.434       .  S
Zr1495     O1497   2.411       .  S
Zr1495     O1498   2.502       .  S
Zr1495     O1503   2.381       .  S
Zr1495     O1504   2.412       .  S
Zr1495     O1505   2.421       .  S
O1496      H1552   0.990       .  S
O1496      H1560   0.990       .  S
O1497      C1517   1.282       .  A
O1498      C1519   1.290       .  A
O1499     Zr1509   2.424       .  S
O1499      C1518   1.286       .  A
O1500     Zr1508   2.391       .  S
O1500      C1519   1.264       .  A
O1501      C1518   1.303       .  A
O1502     Zr1510   2.477       .  S
O1502      C1517   1.293       .  A
O1503     Zr1508   2.394       .  S
O1503     Zr1510   2.361       .  S
O1504     Zr1510   2.374       .  S
O1505     Zr1508   2.416       .  S
O1505     Zr1525   2.401       .  S
O1505      H1542   0.966       .  S
O1506     Zr1509   2.378       .  S
Zr1507     O1532   2.446       .  S
Zr1507     O1526   2.449       .  S
Zr1507     O1534   2.394       .  S
Zr1507     O1522   2.388       .  S
Zr1507     O1513   2.403       .  S
Zr1507     O1514   2.412       .  S
Zr1507     O1515   2.363       .  S
Zr1507     O1516   2.378       .  S
Zr1508     O1527   2.441       .  S
Zr1508     O1520   2.431       .  S
Zr1508     O1521   2.435       .  S
Zr1508     O1514   2.393       .  S
Zr1508     O1515   2.358       .  S
Zr1509     O1511   2.434       .  S
Zr1509     O1533   2.437       .  S
Zr1509     O1535   2.486       .  S
Zr1510     O1536   2.435       .  S
Zr1510     O1537   2.439       .  S
Zr1510     O1512   2.432       .  S
Zr1510     O1513   2.380       .  S
Zr1510     O1514   2.445       .  S
O1511      H1548   0.989       .  S
O1512      H1543   0.990       .  S
O1512      H1557   0.990       .  S
O1514      H1540   0.966       .  S
O1515     Zr1525   2.361       .  S
O1516     Zr1525   2.401       .  S
C1517      C2370   1.485       .  S
C1518      C2471   1.503       .  S
C1519      C2482   1.488       .  S
O1520      H1556   0.990       .  S
O1521      C1523   1.284       .  A
O1522      C1523   1.275       .  A
C1523      C2342   1.477       .  S
O1524     Zr1525   2.439       .  S
O1524      H1553   0.990       .  S
Zr1525     O1528   2.437       .  S
Zr1525     O1530   2.390       .  S
O1526      C1531   1.287       .  A
O1527      H1544   0.991       .  S
O1527      H1559   0.989       .  S
O1528      H1545   0.990       .  S
O1529      H1549   0.991       .  S
O1529      H1558   0.989       .  S
O1530      C1531   1.275       .  A
C1531      C2415   1.461       .  S
O1532      H1551   0.989       .  S
O1532      H1555   0.990       .  S
O1533      H1547   0.990       .  S
O1533      H1554   0.990       .  S
O1535      C1538   1.289       .  A
O1536      H1546   0.990       .  S
O1537      H1550   0.990       .  S
C1538      C2356   1.500       .  S
Zr1561     O1562   2.436       .  S
Zr1561     O1563   2.412       .  S
Zr1561     O1564   2.498       .  S
Zr1561     O1569   2.357       .  S
Zr1561     O1570   2.407       .  S
Zr1561     O1571   2.414       .  S
O1562      H1618   0.990       .  S
O1562      H1626   0.990       .  S
O1563      C1583   1.284       .  A
O1564      C1585   1.292       .  A
O1565     Zr1575   2.456       .  S
O1565      C1584   1.291       .  A
O1566     Zr1574   2.394       .  S
O1566      C1585   1.267       .  A
O1567      C1584   1.296       .  A
O1568     Zr1576   2.478       .  S
O1568      C1583   1.292       .  A
O1569     Zr1574   2.382       .  S
O1569     Zr1576   2.339       .  S
O1570     Zr1576   2.383       .  S
O1571     Zr1574   2.401       .  S
O1571     Zr1591   2.406       .  S
O1571      H1608   0.966       .  S
O1572     Zr1575   2.384       .  S
Zr1573     O1598   2.443   1_565  S
Zr1573     O1592   2.429       .  S
Zr1573     O1600   2.405       .  S
Zr1573     O1588   2.405       .  S
Zr1573     O1579   2.402       .  S
Zr1573     O1580   2.402       .  S
Zr1573     O1581   2.367       .  S
Zr1573     O1582   2.378       .  S
Zr1574     O1593   2.437       .  S
Zr1574     O1586   2.436       .  S
Zr1574     O1587   2.408       .  S
Zr1574     O1580   2.398       .  S
Zr1574     O1581   2.361       .  S
Zr1575     O1577   2.435       .  S
Zr1575     O1599   2.437       .  S
Zr1575     O1601   2.505       .  S
Zr1576     O1602   2.435       .  S
Zr1576     O1603   2.434       .  S
Zr1576     O1578   2.436       .  S
Zr1576     O1579   2.396       .  S
Zr1576     O1580   2.431       .  S
O1577      H1614   0.990       .  S
O1578      H1609   0.990       .  S
O1578      H1623   0.989       .  S
O1580      H1606   0.966       .  S
O1581     Zr1591   2.361       .  S
O1582     Zr1591   2.398       .  S
C1583      C2328   1.496       .  S
C1584      C2317   1.494       .  S
C1585      C2303   1.497       .  S
O1586      H1622   0.989       .  S
O1587      C1589   1.281       .  A
O1588      C1589   1.279       .  A
C1589      C2513   1.467       .  S
O1590     Zr1591   2.439       .  S
O1590      H1619   0.990       .  S
Zr1591     O1594   2.437       .  S
Zr1591     O1596   2.409       .  S
O1592      C1597   1.285       .  A
O1593      H1610   0.991       .  S
O1593      H1625   0.989       .  S
O1594      H1611   0.990       .  S
O1595      H1615   0.991       .  S
O1595      H1624   0.989       .  S
O1596      C1597   1.280       .  A
C1597      C2289   1.470       .  S
O1598      H1617   0.989       .  S
O1598      H1621   0.990   1_545  S
O1599      H1613   0.990       .  S
O1599      H1620   0.990       .  S
O1601      C1604   1.293   1_565  A
O1602      H1612   0.990       .  S
O1603      H1616   0.990       .  S
C1604      C2426   1.517       .  S
Zr1627     O1628   2.437       .  S
Zr1627     O1629   2.420       .  S
Zr1627     O1630   2.486       .  S
Zr1627     O1635   2.398       .  S
Zr1627     O1637   2.412       .  S
O1628      H1684   0.990       .  S
O1628      H1692   0.990       .  S
O1629      C1649   1.283       .  A
O1630      C1651   1.298       .  A
O1631     Zr1641   2.407       .  S
O1631      C1650   1.270       .  A
O1632     Zr1640   2.424       .  S
O1632      C1651   1.285       .  A
O1633      C1650   1.291       .  A
O1634     Zr1642   2.449       .  S
O1635     Zr1640   2.410       .  S
O1636     Zr1641   2.386       .  S
O1636     Zr1642   2.334       .  S
O1636      H1671   0.961       .  S
O1637     Zr1640   2.412       .  S
O1637     Zr1657   2.361       .  S
O1637      H1674   0.963       .  S
O1638     Zr1641   2.401   1_554  S
Zr1639     O1664   2.442   1_545  S
Zr1639     O1658   2.437   1_556  S
Zr1639     O1666   2.386       .  S
Zr1639     O1645   2.409       .  S
Zr1639     O1648   2.374       .  S
Zr1640     O1659   2.434       .  S
Zr1640     O1652   2.435       .  S
Zr1640     O1653   2.478       .  S
Zr1640     O1646   2.384       .  S
Zr1640     O1647   2.397       .  S
Zr1641     O1643   2.435       .  S
Zr1641     O1665   2.437       .  S
Zr1641     O1667   2.404       .  S
Zr1641     O1645   2.394       .  S
Zr1641     O1648   2.374       .  S
Zr1642     O1668   2.436       .  S
Zr1642     O1669   2.436       .  S
Zr1642     O1645   2.417       .  S
O1643      H1680   0.989       .  S
O1644      H1675   0.990       .  S
O1644      H1689   0.990       .  S
O1646      H1672   0.963       .  S
O1647     Zr1657   2.397       .  S
O1648      H1673   0.965       .  S
C1650      C2247   1.502       .  S
C1651      C2261   1.491       .  S
O1652      H1688   0.990       .  S
O1653      C1655   1.293   1_545  A
O1654      C1655   1.281       .  A
C1655      C2373   1.480       .  S
O1656     Zr1657   2.440       .  S
O1656      H1685   0.990       .  S
Zr1657     O1660   2.437       .  S
Zr1657     O1662   2.400       .  S
O1658      C1663   1.285       .  A
O1659      H1676   0.990       .  S
O1659      H1691   0.990       .  S
O1660      H1677   0.990       .  S
O1661      H1681   0.990       .  S
O1661      H1690   0.990   1_554  S
O1664      H1683   0.990       .  S
O1664      H1687   0.991       .  S
O1665      H1679   0.989       .  S
O1665      H1686   0.988       .  S
O1666      C1670   1.274       .  A
O1667      C1670   1.278       .  A
O1668      H1678   0.990       .  S
O1669      H1682   0.990       .  S
C1670      C2443   1.437       .  S
Zr1693     O1694   2.437       .  S
Zr1693     O1695   2.437       .  S
Zr1693     O1696   2.487       .  S
Zr1693     O1699   2.511       .  S
Zr1693     O1701   2.376       .  S
Zr1693     O1702   2.404       .  S
Zr1693     O1703   2.425       .  S
Zr1693     O1704   2.383       .  S
O1694      H1750   0.990       .  S
O1694      H1758   0.990       .  S
O1695      C1715   1.288       .  A
O1696      C1717   1.290       .  A
O1697     Zr1707   2.418       .  S
O1697      C1716   1.284       .  A
O1698     Zr1706   2.398       .  S
O1698      C1717   1.269       .  A
O1699      C1716   1.303       .  A
O1700     Zr1708   2.473       .  S
O1700      C1715   1.291       .  A
O1701     Zr1706   2.390       .  S
O1701     Zr1708   2.343       .  S
O1702     Zr1707   2.410       .  S
O1702     Zr1708   2.384       .  S
O1702      H1737   0.965       .  S
O1703     Zr1706   2.415       .  S
O1703     Zr1723   2.403       .  S
O1703      H1740   0.966       .  S
O1704     Zr1707   2.383       .  S
O1704     Zr1723   2.365       .  S
Zr1705     O1730   2.444       .  S
Zr1705     O1724   2.436       .  S
Zr1705     O1732   2.397       .  S
Zr1705     O1720   2.388       .  S
Zr1705     O1711   2.402       .  S
Zr1705     O1712   2.404       .  S
Zr1705     O1713   2.365       .  S
Zr1705     O1714   2.368       .  S
Zr1706     O1725   2.435       .  S
Zr1706     O1718   2.435       .  S
Zr1706     O1719   2.445       .  S
Zr1706     O1712   2.395       .  S
Zr1706     O1713   2.364       .  S
Zr1707     O1709   2.436       .  S
Zr1707     O1731   2.438       .  S
Zr1707     O1733   2.476       .  S
Zr1707     O1711   2.372       .  S
Zr1707     O1714   2.394       .  S
Zr1708     O1734   2.435       .  S
Zr1708     O1735   2.434       .  S
Zr1708     O1710   2.436       .  S
Zr1708     O1711   2.401       .  S
Zr1708     O1712   2.426       .  S
O1709      H1746   0.989       .  S
O1710      H1741   0.990       .  S
O1710      H1755   0.990       .  S
O1712      H1738   0.966       .  S
O1713     Zr1723   2.366       .  S
O1714     Zr1723   2.395       .  S
O1714      H1739   0.965       .  S
C1715      C2454   1.502       .  S
C1716      C2244   1.505       .  S
C1717      C2258   1.491       .  S
O1718      H1754   0.990       .  S
O1719      C1721   1.286       .  A
O1720      C1721   1.277       .  A
C1721      C2202   1.488       .  S
O1722     Zr1723   2.440       .  S
O1722      H1751   0.990       .  S
Zr1723     O1726   2.437       .  S
Zr1723     O1727   2.440       .  S
Zr1723     O1728   2.413       .  S
O1724      C1729   1.284       .  A
O1725      H1742   0.990       .  S
O1725      H1757   0.990       .  S
O1726      H1743   0.990       .  S
O1727      H1747   0.990       .  S
O1727      H1756   0.989       .  S
O1728      C1729   1.281       .  A
C1729      C2230   1.488       .  S
O1730      H1749   0.989   1_655  S
O1730      H1753   0.990       .  S
O1731      H1745   0.990       .  S
O1731      H1752   0.989       .  S
O1732      C1736   1.277       .  A
O1733      C1736   1.288       .  A
O1734      H1744   0.990       .  S
O1735      H1748   0.990       .  S
C1736      C2219   1.502   1_655  S
Zr1759     O1760   2.438       .  S
Zr1759     O1761   2.444       .  S
Zr1759     O1762   2.504       .  S
Zr1759     O1765   2.508       .  S
Zr1759     O1767   2.403       .  S
Zr1759     O1768   2.401       .  S
Zr1759     O1769   2.421       .  S
Zr1759     O1770   2.418       .  S
O1760      H1816   0.990       .  S
O1760      H1824   0.991       .  S
O1761      C1781   1.289       .  A
O1762      C1783   1.301       .  A
O1763     Zr1773   2.406       .  S
O1763      C1782   1.271       .  A
O1764     Zr1772   2.420       .  S
O1764      C1783   1.285       .  A
O1765      C1782   1.293       .  A
O1766     Zr1774   2.453       .  S
O1766      C1781   1.286       .  A
O1767     Zr1772   2.418       .  S
O1767     Zr1774   2.380       .  S
O1768     Zr1773   2.404       .  S
O1768     Zr1774   2.360       .  S
O1768      H1803   0.965       .  S
O1769     Zr1772   2.423       .  S
O1769     Zr1789   2.360       .  S
O1769      H1806   0.962       .  S
O1770     Zr1773   2.410       .  S
O1770     Zr1789   2.398       .  S
Zr1771     O1796   2.437   1_455  S
Zr1771     O1790   2.435       .  S
Zr1771     O1798   2.379       .  S
Zr1771     O1786   2.406   1_455  S
Zr1771     O1777   2.400       .  S
Zr1771     O1778   2.407       .  S
Zr1771     O1779   2.364       .  S
Zr1771     O1780   2.365       .  S
Zr1772     O1791   2.435       .  S
Zr1772     O1784   2.435       .  S
Zr1772     O1785   2.498       .  S
Zr1772     O1778   2.387       .  S
Zr1772     O1779   2.390       .  S
Zr1773     O1775   2.440       .  S
Zr1773     O1797   2.444       .  S
Zr1773     O1799   2.446       .  S
Zr1773     O1777   2.375       .  S
Zr1773     O1780   2.361       .  S
Zr1774     O1800   2.436       .  S
Zr1774     O1801   2.435       .  S
Zr1774     O1776   2.437       .  S
Zr1774     O1777   2.421       .  S
Zr1774     O1778   2.389       .  S
O1775      H1812   0.990       .  S
O1776      H1807   0.990       .  S
O1776      H1821   0.990       .  S
O1778      H1804   0.964       .  S
O1779     Zr1789   2.385       .  S
O1780     Zr1789   2.352       .  S
O1780      H1805   0.964       .  S
C1781      C2527   1.495       .  S
C1782      C2314   1.507       .  S
C1783      C2300   1.495       .  S
O1784      H1820   0.990       .  S
O1785      C1787   1.292   1_455  A
O1786      C1787   1.274       .  A
C1787      C2188   1.507       .  S
O1788     Zr1789   2.440       .  S
O1788      H1817   0.990       .  S
Zr1789     O1792   2.437       .  S
Zr1789     O1793   2.439       .  S
Zr1789     O1794   2.419       .  S
O1790      C1795   1.285       .  A
O1791      H1808   0.990       .  S
O1791      H1823   0.991       .  S
O1792      H1809   0.990       .  S
O1793      H1813   0.990       .  S
O1793      H1822   0.990       .  S
O1794      C1795   1.283       .  A
C1795      C2233   1.488       .  S
O1796      H1815   0.990       .  S
O1796      H1819   0.990       .  S
O1797      H1811   0.989       .  S
O1797      H1818   0.989       .  S
O1798      C1802   1.277       .  A
O1799      C1802   1.286       .  A
O1800      H1810   0.990       .  S
O1801      H1814   0.989       .  S
C1802      C2174   1.477       .  S
Zr1825     O1826   2.436       .  S
Zr1825     O1827   2.415       .  S
Zr1825     O1828   2.479       .  S
Zr1825     O1833   2.396       .  S
Zr1825     O1835   2.415       .  S
O1826      H1882   0.990       .  S
O1826      H1890   0.990       .  S
O1827      C1847   1.283       .  A
O1828      C1849   1.296       .  A
O1829     Zr1839   2.400       .  S
O1829      C1848   1.267       .  A
O1830     Zr1838   2.422       .  S
O1830      C1849   1.285       .  A
O1831      C1848   1.289       .  A
O1832     Zr1840   2.473       .  S
O1833     Zr1838   2.409       .  S
O1834     Zr1839   2.398       .  S
O1834     Zr1840   2.342       .  S
O1834      H1869   0.959       .  S
O1835     Zr1838   2.413       .  S
O1835     Zr1855   2.360       .  S
O1835      H1872   0.963       .  S
O1836     Zr1839   2.407       .  S
Zr1837     O1862   2.443   1_655  S
Zr1837     O1856   2.443   1_556  S
Zr1837     O1864   2.395       .  S
Zr1837     O1843   2.409       .  S
Zr1837     O1846   2.371       .  S
Zr1838     O1857   2.435       .  S
Zr1838     O1850   2.435       .  S
Zr1838     O1851   2.479       .  S
Zr1838     O1844   2.384       .  S
Zr1838     O1845   2.391       .  S
Zr1839     O1841   2.436       .  S
Zr1839     O1863   2.443       .  S
Zr1839     O1865   2.429       .  S
Zr1839     O1843   2.391       .  S
Zr1839     O1846   2.373       .  S
Zr1840     O1866   2.435       .  S
Zr1840     O1867   2.439       .  S
Zr1840     O1843   2.431       .  S
O1841      H1878   0.989       .  S
O1842      H1873   0.989       .  S
O1842      H1887   0.991       .  S
O1844      H1870   0.963       .  S
O1845     Zr1855   2.390       .  S
O1846      H1871   0.965       .  S
C1848      C2146   1.502       .  S
C1849      C2160   1.495       .  S
O1850      H1886   0.990       .  S
O1851      C1853   1.293       .  A
O1852      C1853   1.282       .  A
C1853      C2331   1.492   1_655  S
O1854     Zr1855   2.439       .  S
O1854      H1883   0.990       .  S
Zr1855     O1858   2.437       .  S
Zr1855     O1860   2.414       .  S
O1856      C1861   1.286       .  A
O1857      H1874   0.990       .  S
O1857      H1889   0.990       .  S
O1858      H1875   0.990       .  S
O1859      H1879   0.990   1_554  S
O1859      H1888   0.990   1_554  S
O1862      H1881   0.990   1_455  S
O1862      H1885   0.991       .  S
O1863      H1877   0.989       .  S
O1863      H1884   0.988       .  S
O1864      C1868   1.279       .  A
O1865      C1868   1.283       .  A
O1866      H1876   0.991       .  S
O1867      H1880   0.990       .  S
C1868      C2177   1.474       .  S
Zr1891     O1892   2.436       .  S
Zr1891     O1893   2.449       .  S
Zr1891     O1894   2.495       .  S
Zr1891     O1899   2.378       .  S
Zr1891     O1900   2.402       .  S
Zr1891     O1901   2.429       .  S
O1892      H1948   0.990       .  S
O1892      H1956   0.990       .  S
O1893      C1913   1.290       .  A
O1894      C1915   1.293       .  A
O1895     Zr1905   2.414       .  S
O1895      C1914   1.283       .  A
O1896     Zr1904   2.392       .  S
O1896      C1915   1.268       .  A
O1897      C1914   1.306       .  A
O1898     Zr1906   2.465       .  S
O1898      C1913   1.289       .  A
O1899     Zr1904   2.391       .  S
O1899     Zr1906   2.345       .  S
O1900     Zr1906   2.385       .  S
O1901     Zr1904   2.415       .  S
O1901     Zr1921   2.405       .  S
O1901      H1938   0.966       .  S
O1902     Zr1905   2.382       .  S
Zr1903     O1928   2.444   1_455  S
Zr1903     O1922   2.440       .  S
Zr1903     O1930   2.393   1_455  S
Zr1903     O1918   2.390       .  S
Zr1903     O1909   2.402       .  S
Zr1903     O1910   2.402       .  S
Zr1903     O1911   2.363       .  S
Zr1903     O1912   2.372       .  S
Zr1904     O1923   2.436       .  S
Zr1904     O1916   2.433       .  S
Zr1904     O1917   2.443       .  S
Zr1904     O1910   2.392       .  S
Zr1904     O1911   2.358       .  S
Zr1905     O1907   2.436       .  S
Zr1905     O1929   2.438       .  S
Zr1905     O1931   2.467       .  S
Zr1906     O1932   2.435       .  S
Zr1906     O1933   2.435       .  S
Zr1906     O1908   2.438       .  S
Zr1906     O1909   2.399       .  S
Zr1906     O1910   2.425       .  S
O1907      H1944   0.990       .  S
O1908      H1939   0.990       .  S
O1908      H1953   0.990       .  S
O1910      H1936   0.966       .  S
O1911     Zr1921   2.365       .  S
O1912     Zr1921   2.392       .  S
C1913      C2387   1.505       .  S
C1914      C2121   1.513       .  S
C1915      C2104   1.499       .  S
O1916      H1952   0.989       .  S
O1917      C1919   1.286       .  A
O1918      C1919   1.277       .  A
C1919      C2205   1.486       .  S
O1920     Zr1921   2.439       .  S
O1920      H1949   0.990       .  S
Zr1921     O1924   2.437       .  S
Zr1921     O1926   2.417       .  S
O1922      C1927   1.286       .  A
O1923      H1940   0.990       .  S
O1923      H1955   0.989       .  S
O1924      H1941   0.990       .  S
O1925      H1945   0.991       .  S
O1925      H1954   0.989       .  S
O1926      C1927   1.282       .  A
C1927      C2135   1.492       .  S
O1928      H1947   0.990       .  S
O1928      H1951   0.990       .  S
O1929      H1943   0.989       .  S
O1929      H1950   0.990       .  S
O1931      C1934   1.287   1_455  A
O1932      H1942   0.990       .  S
O1933      H1946   0.990       .  S
C1934      C2275   1.493       .  S
Zr1957     O1958   2.437       .  S
Zr1957     O1959   2.420       .  S
Zr1957     O1960   2.483       .  S
Zr1957     O1963   2.497       .  S
Zr1957     O1965   2.401       .  S
Zr1957     O1966   2.398       .  S
Zr1957     O1967   2.415       .  S
Zr1957     O1968   2.417       .  S
O1958      H2014   0.990       .  S
O1958      H2022   0.990       .  S
O1959      C1979   1.283       .  A
O1960      C1981   1.298       .  A
O1961     Zr1971   2.396       .  S
O1961      C1980   1.267       .  A
O1962     Zr1970   2.433       .  S
O1962      C1981   1.286       .  A
O1963      C1980   1.291       .  A
O1964     Zr1972   2.458       .  S
O1964      C1979   1.288       .  A
O1965     Zr1970   2.411       .  S
O1965     Zr1972   2.383       .  S
O1966     Zr1971   2.384       .  S
O1966     Zr1972   2.341       .  S
O1966      H2001   0.962       .  S
O1967     Zr1970   2.416       .  S
O1967     Zr1987   2.357       .  S
O1967      H2004   0.962       .  S
O1968     Zr1971   2.398       .  S
O1968     Zr1987   2.402       .  S
Zr1969     O1994   2.447       .  S
Zr1969     O1988   2.438       .  S
Zr1969     O1996   2.400       .  S
Zr1969     O1984   2.425       .  S
Zr1969     O1975   2.408       .  S
Zr1969     O1976   2.403       .  S
Zr1969     O1977   2.371       .  S
Zr1969     O1978   2.374       .  S
Zr1970     O1989   2.435       .  S
Zr1970     O1982   2.435       .  S
Zr1970     O1983   2.491       .  S
Zr1970     O1976   2.385       .  S
Zr1970     O1977   2.394       .  S
Zr1971     O1973   2.432       .  S
Zr1971     O1995   2.439       .  S
Zr1971     O1997   2.387       .  S
Zr1971     O1975   2.393       .  S
Zr1971     O1978   2.370       .  S
Zr1972     O1998   2.436       .  S
Zr1972     O1999   2.436       .  S
Zr1972     O1974   2.437       .  S
Zr1972     O1975   2.421       .  S
Zr1972     O1976   2.383       .  S
O1973      H2010   0.990       .  S
O1974      H2005   0.990       .  S
O1974      H2019   0.990       .  S
O1976      H2002   0.964       .  S
O1977     Zr1987   2.394       .  S
O1978     Zr1987   2.351       .  S
O1978      H2003   0.964       .  S
C1979      C2216   1.495       .  S
C1980      C2118   1.509       .  S
C1981      C2107   1.501       .  S
O1982      H2018   0.990       .  S
O1983      C1985   1.295       .  A
O1984      C1985   1.284       .  A
C1985      C2583   1.497       .  S
O1986     Zr1987   2.440       .  S
O1986      H2015   0.990       .  S
Zr1987     O1990   2.437       .  S
Zr1987     O1991   2.439       .  S
Zr1987     O1992   2.408       .  S
O1988      C1993   1.285       .  A
O1989      H2006   0.990       .  S
O1989      H2021   0.990       .  S
O1990      H2007   0.990       .  S
O1991      H2011   0.990       .  S
O1991      H2020   0.990       .  S
O1992      C1993   1.280       .  A
C1993      C2093   1.476       .  S
O1994      H2013   0.990       .  S
O1994      H2017   0.991       .  S
O1995      H2009   0.990       .  S
O1995      H2016   0.987       .  S
O1996      C2000   1.279       .  A
O1997      C2000   1.275       .  A
O1998      H2008   0.990       .  S
O1999      H2012   0.990       .  S
C2000      C2401   1.434       .  S
Zr2023     O2024   2.434       .  S
Zr2023     O2025   2.416       .  S
Zr2023     O2026   2.473       .  S
Zr2023     O2029   2.475       .  S
Zr2023     O2031   2.371       .  S
Zr2023     O2032   2.402       .  S
Zr2023     O2033   2.414       .  S
Zr2023     O2034   2.391       .  S
O2024      H2080   0.990       .  S
O2024      H2088   0.990       .  S
O2025      C2045   1.284       .  A
O2026      C2047   1.289       .  A
O2027     Zr2037   2.423       .  S
O2027      C2046   1.286       .  A
O2028     Zr2036   2.399       .  S
O2028      C2047   1.270       .  A
O2029      C2046   1.294       .  A
O2030     Zr2038   2.471       .  S
O2030      C2045   1.290       .  A
O2031     Zr2036   2.388       .  S
O2031     Zr2038   2.350       .  S
O2032     Zr2037   2.403       .  S
O2032     Zr2038   2.383       .  S
O2032      H2067   0.965       .  S
O2033     Zr2036   2.405       .  S
O2033     Zr2053   2.401       .  S
O2033      H2070   0.966       .  S
O2034     Zr2037   2.389       .  S
O2034     Zr2053   2.366       .  S
Zr2035     O2060   2.445       .  S
Zr2035     O2054   2.437       .  S
Zr2035     O2062   2.393       .  S
Zr2035     O2050   2.396       .  S
Zr2035     O2041   2.399       .  S
Zr2035     O2042   2.403       .  S
Zr2035     O2043   2.366       .  S
Zr2035     O2044   2.372       .  S
Zr2036     O2055   2.437       .  S
Zr2036     O2048   2.435       .  S
Zr2036     O2049   2.424       .  S
Zr2036     O2042   2.398       .  S
Zr2036     O2043   2.363       .  S
Zr2037     O2039   2.436       .  S
Zr2037     O2061   2.437       .  S
Zr2037     O2063   2.477       .  S
Zr2037     O2041   2.377       .  S
Zr2037     O2044   2.388       .  S
Zr2038     O2064   2.435       .  S
Zr2038     O2065   2.435       .  S
Zr2038     O2040   2.437       .  S
Zr2038     O2041   2.401       .  S
Zr2038     O2042   2.428       .  S
O2039      H2076   0.990       .  S
O2040      H2071   0.990       .  S
O2040      H2085   0.990       .  S
O2042      H2068   0.966       .  S
O2043     Zr2053   2.362       .  S
O2044     Zr2053   2.392       .  S
O2044      H2069   0.966       .  S
C2045      C2191   1.506       .  S
C2046      C2149   1.492       .  S
C2047      C2163   1.494       .  S
O2048      H2084   0.989       .  S
O2049      C2051   1.284       .  A
O2050      C2051   1.278       .  A
C2051      C2345   1.475       .  S
O2052     Zr2053   2.437       .  S
O2052      H2081   0.990       .  S
Zr2053     O2056   2.438       .  S
Zr2053     O2057   2.438       .  S
Zr2053     O2058   2.400       .  S
O2054      C2059   1.284       .  A
O2055      H2072   0.990       .  S
O2055      H2087   0.989       .  S
O2056      H2073   0.990       .  S
O2057      H2077   0.989       .  S
O2057      H2086   0.990       .  S
O2058      C2059   1.279       .  A
C2059      C2090   1.475       .  S
O2060      H2079   0.991       .  S
O2060      H2083   0.990       .  S
O2061      H2075   0.990       .  S
O2061      H2082   0.990       .  S
O2062      C2066   1.279       .  A
O2063      C2066   1.291       .  A
O2064      H2074   0.990       .  S
O2065      H2078   0.990       .  S
C2066      C2499   1.493       .  S
C2089      C2090   1.406       .  A
C2089      C2094   1.396       .  A
C2089      H2096   1.084       .  S
C2090      C2091   1.411       .  A
C2091      C2092   1.402       .  A
C2091      N2098   1.434       .  S
C2092      C2093   1.408       .  A
C2092      H2097   1.084       .  S
C2093      C2094   1.407       .  A
C2094      N2095   1.431       .  S
N2095      O2099   1.262       .  A
N2095      O2100   1.262       .  A
N2098      O2101   1.262       .  A
N2098      O2102   1.262       .  A
C2103      C2104   1.403       .  A
C2103      C2108   1.403       .  A
C2103      H2110   1.080       .  S
C2104      C2105   1.423       .  A
C2105      C2106   1.409       .  A
C2105      N2112   1.438       .  S
C2106      C2107   1.407       .  A
C2106      H2111   1.083       .  S
C2107      C2108   1.422       .  A
C2108      N2109   1.433       .  S
N2109      O2113   1.262       .  A
N2109      O2114   1.263       .  A
N2112      O2115   1.263       .  A
N2112      O2116   1.263       .  A
C2117      C2118   1.402       .  A
C2117      C2122   1.406       .  A
C2117      H2124   1.083       .  S
C2118      C2119   1.426       .  A
C2119      C2120   1.421       .  A
C2119      N2126   1.440       .  S
C2120      C2121   1.407       .  A
C2120      H2125   1.083       .  S
C2121      C2122   1.427       .  A
C2122      N2123   1.436       .  S
N2123      O2127   1.263       .  A
N2123      O2128   1.262       .  A
N2126      O2129   1.263       .  A
N2126      O2130   1.263       .  A
C2131      C2132   1.411       .  A
C2131      C2136   1.403       .  A
C2131      H2138   1.083       .  S
C2132      C2133   1.415   1_655  A
C2133      C2134   1.403       .  A
C2134      C2135   1.410       .  A
C2134      H2139   1.083       .  S
C2135      C2136   1.415   1_455  A
C2136      N2137   1.436       .  S
N2137      O2141   1.263       .  A
N2137      O2142   1.263       .  A
N2140      O2144   1.263   1_554  A
C2145      C2146   1.411       .  A
C2145      C2150   1.419       .  A
C2145      H2152   1.083       .  S
C2146      C2147   1.411       .  A
C2147      C2148   1.395       .  A
C2147      N2154   1.421       .  S
C2148      C2149   1.401       .  A
C2148      H2153   1.085       .  S
C2149      C2150   1.421       .  A
C2150      N2151   1.440       .  S
N2151      O2155   1.263       .  A
N2151      O2156   1.262       .  A
N2154      O2157   1.263       .  A
N2154      O2158   1.257       .  A
C2159      C2160   1.405       .  A
C2159      C2164   1.409       .  A
C2159      H2166   1.083       .  S
C2160      C2161   1.419       .  A
C2161      C2162   1.401       .  A
C2161      N2168   1.434       .  S
C2162      C2163   1.404       .  A
C2162      H2167   1.084       .  S
C2163      C2164   1.422       .  A
C2164      N2165   1.439       .  S
N2165      O2169   1.263       .  A
N2165      O2170   1.263       .  A
N2168      O2171   1.262       .  A
N2168      O2172   1.262       .  A
C2173      C2174   1.407   1_655  A
C2173      C2178   1.392       .  A
C2173      H2180   1.082       .  S
C2174      C2175   1.409       .  A
C2175      C2176   1.397   1_455  A
C2175      N2182   1.436       .  S
C2176      C2177   1.408       .  A
C2176      H2181   1.084   1_655  S
C2177      C2178   1.410       .  A
C2178      N2179   1.434       .  S
N2179      O2183   1.263       .  A
N2179      O2184   1.262       .  A
N2182      O2185   1.263       .  A
N2182      O2186   1.263       .  A
C2187      C2188   1.408       .  A
C2187      C2192   1.395       .  A
C2187      H2194   1.081       .  S
C2188      C2189   1.419       .  A
C2189      C2190   1.423       .  A
C2189      N2196   1.438       .  S
C2190      C2191   1.415       .  A
C2190      H2195   1.083       .  S
C2191      C2192   1.416       .  A
C2192      N2193   1.438       .  S
N2193      O2197   1.263       .  A
N2193      O2198   1.263       .  A
N2196      O2199   1.263       .  A
N2196      O2200   1.263       .  A
C2201      C2202   1.411   1_455  A
C2201      C2206   1.397       .  A
C2201      H2208   1.083       .  S
C2202      C2203   1.413       .  A
C2203      C2204   1.401       .  A
C2203      N2210   1.436       .  S
C2204      C2205   1.411   1_655  A
C2204      H2209   1.084       .  S
C2205      C2206   1.411       .  A
C2206      N2207   1.434       .  S
N2207      O2211   1.262       .  A
N2207      O2212   1.263       .  A
N2210      O2213   1.263       .  A
N2210      O2214   1.263       .  A
C2215      C2216   1.410       .  A
C2215      C2220   1.417       .  A
C2215      H2222   1.083       .  S
C2216      C2217   1.414       .  A
C2217      C2218   1.393       .  A
C2217      N2224   1.431       .  S
C2218      C2219   1.408       .  A
C2218      H2223   1.084       .  S
C2219      C2220   1.420       .  A
C2220      N2221   1.435       .  S
N2221      O2225   1.262       .  A
N2221      O2226   1.262   1_455  A
N2224      O2227   1.262       .  A
N2224      O2228   1.262       .  A
C2229      C2230   1.409       .  A
C2229      C2234   1.400       .  A
C2229      H2236   1.084       .  S
C2230      C2231   1.413   1_655  A
C2231      C2232   1.399       .  A
C2231      N2238   1.432       .  S
C2232      C2233   1.409       .  A
C2232      H2237   1.084       .  S
C2233      C2234   1.413   1_455  A
C2234      N2235   1.431       .  S
N2235      O2239   1.262       .  A
N2235      O2240   1.262       .  A
N2238      O2241   1.262       .  A
N2238      O2242   1.262       .  A
C2243      C2244   1.407       .  A
C2243      C2248   1.418       .  A
C2243      H2250   1.083       .  S
C2244      C2245   1.423       .  A
C2245      C2246   1.404       .  A
C2245      N2252   1.436       .  S
C2246      C2247   1.403       .  A
C2246      H2251   1.082       .  S
C2247      C2248   1.423       .  A
C2248      N2249   1.439       .  S
N2249      O2253   1.263       .  A
N2249      O2254   1.263       .  A
N2252      O2255   1.263       .  A
N2252      O2256   1.262       .  A
C2257      C2258   1.405       .  A
C2257      C2262   1.406       .  A
C2257      H2264   1.081       .  S
C2258      C2259   1.418       .  A
C2259      C2260   1.411       .  A
C2259      N2266   1.440       .  S
C2260      C2261   1.406       .  A
C2260      H2265   1.084       .  S
C2261      C2262   1.418       .  A
C2262      N2263   1.439       .  S
N2263      O2267   1.263       .  A
N2263      O2268   1.263       .  A
N2266      O2269   1.263       .  A
N2266      O2270   1.263       .  A
C2271      C2272   1.408       .  A
C2271      C2276   1.413       .  A
C2271      H2278   1.084       .  S
C2272      C2273   1.414       .  A
C2273      C2274   1.394       .  A
C2273      N2280   1.433       .  S
C2274      C2275   1.406       .  A
C2274      H2279   1.084       .  S
C2275      C2276   1.418       .  A
C2276      N2277   1.435       .  S
N2277      O2281   1.263       .  A
N2277      O2282   1.262       .  A
N2280      O2284   1.262       .  A
C2285      C2290   1.399       .  A
C2285      H2292   1.084   1_554  S
C2286      C2287   1.411   1_545  A
C2287      C2288   1.402       .  A
C2287      N2294   1.440       .  S
C2288      C2289   1.406       .  A
C2288      H2293   1.084       .  S
C2290      N2291   1.440   1_554  S
N2291      O2295   1.263       .  A
N2291      O2296   1.263       .  A
N2294      O2297   1.263       .  A
N2294      O2298   1.263       .  A
C2299      C2300   1.407       .  A
C2299      C2304   1.414       .  A
C2299      H2306   1.083       .  S
C2300      C2301   1.419       .  A
C2301      C2302   1.407       .  A
C2301      N2308   1.440       .  S
C2302      C2303   1.405       .  A
C2302      H2307   1.081       .  S
C2303      C2304   1.420       .  A
C2304      N2305   1.440       .  S
N2305      O2309   1.263       .  A
N2305      O2310   1.263       .  A
N2308      O2311   1.263       .  A
N2308      O2312   1.263       .  A
C2313      C2314   1.406       .  A
C2313      C2318   1.401       .  A
C2313      H2320   1.071       .  S
C2314      C2315   1.417       .  A
C2315      C2316   1.421       .  A
C2315      N2322   1.443       .  S
C2316      C2317   1.414       .  A
C2316      H2321   1.083       .  S
C2317      C2318   1.408       .  A
C2318      N2319   1.438       .  S
N2319      O2323   1.263       .  A
N2319      O2324   1.263       .  A
N2322      O2325   1.263       .  A
N2322      O2326   1.263       .  A
C2327      C2328   1.407       .  A
C2327      C2332   1.416       .  A
C2327      H2334   1.083       .  S
C2328      C2329   1.414       .  A
C2329      C2330   1.396       .  A
C2329      N2336   1.429       .  S
C2330      C2331   1.403       .  A
C2330      H2335   1.084       .  S
C2331      C2332   1.421       .  A
C2332      N2333   1.435       .  S
N2333      O2337   1.262       .  A
N2333      O2338   1.262   1_455  A
N2336      O2339   1.261       .  A
N2336      O2340   1.262       .  A
C2341      C2342   1.403       .  A
C2341      C2346   1.399       .  A
C2341      H2348   1.083       .  S
C2342      C2343   1.418       .  A
C2343      C2344   1.396       .  A
C2343      N2350   1.438       .  S
C2344      C2345   1.400       .  A
C2344      H2349   1.083       .  S
C2345      C2346   1.416       .  A
C2346      N2347   1.439       .  S
N2347      O2351   1.263       .  A
N2347      O2352   1.262       .  A
N2350      O2353   1.263       .  A
N2350      O2354   1.261       .  A
C2355      C2356   1.411       .  A
C2355      C2360   1.421       .  A
C2355      H2362   1.083       .  S
C2356      C2357   1.417       .  A
C2357      C2358   1.397       .  A
C2357      N2364   1.440       .  S
C2358      C2359   1.405       .  A
C2359      C2360   1.420       .  A
C2360      N2361   1.438       .  S
N2361      O2365   1.263       .  A
N2364      O2367   1.263       .  A
C2369      C2370   1.409       .  A
C2369      C2374   1.410       .  A
C2369      H2376   1.082       .  S
C2370      C2371   1.415       .  A
C2371      C2372   1.412       .  A
C2372      C2373   1.409       .  A
C2373      C2374   1.411       .  A
C2374      N2375   1.444       .  S
N2375      O2379   1.263       .  A
N2375      O2380   1.263       .  A
N2378      O2381   1.262       .  A
N2378      O2382   1.263       .  A
C2383      C2384   1.409       .  A
C2383      C2388   1.406       .  A
C2383      H2390   1.085       .  S
C2384      C2385   1.419       .  A
C2385      C2386   1.420       .  A
C2385      N2392   1.439       .  S
C2386      C2387   1.411       .  A
C2386      H2391   1.083       .  S
C2387      C2388   1.418       .  A
C2388      N2389   1.435       .  S
N2389      O2393   1.263       .  A
N2389      O2394   1.262       .  A
N2392      O2395   1.262       .  A
C2397      C2398   1.405       .  A
C2397      C2402   1.400       .  A
C2397      H2404   1.083       .  S
C2398      C2399   1.413       .  A
C2399      C2400   1.380       .  A
C2399      N2406   1.441       .  S
C2400      C2401   1.394       .  A
C2400      H2405   1.086       .  S
C2401      C2402   1.408       .  A
C2402      N2403   1.443       .  S
N2403      O2407   1.263       .  A
N2403      O2408   1.263       .  A
N2406      O2409   1.263       .  A
N2406      O2410   1.263       .  A
C2411      C2412   1.399       .  A
C2411      C2416   1.402       .  A
C2411      H2418   1.084       .  S
C2413      C2414   1.400       .  A
C2413      N2420   1.438       .  S
C2414      H2419   1.084       .  S
C2415      C2416   1.416       .  A
C2416      N2417   1.441       .  S
N2417      O2421   1.263       .  A
N2417      O2422   1.262       .  A
N2420      O2423   1.261       .  A
N2420      O2424   1.263       .  A
C2425      C2430   1.396       .  A
C2425      H2432   1.083       .  S
C2426      C2427   1.422       .  A
C2427      C2428   1.425       .  A
C2427      N2434   1.432       .  S
C2428      C2429   1.414       .  A
C2428      H2433   1.083       .  S
C2430      N2431   1.436       .  S
N2431      O2435   1.263       .  A
N2431      O2436   1.263       .  A
N2434      O2437   1.262   1_545  A
N2434      O2438   1.262       .  A
C2439      C2440   1.401       .  A
C2439      C2444   1.405   1_565  A
C2439      H2446   1.083       .  S
C2440      C2441   1.410       .  A
C2441      C2442   1.382   1_565  A
C2441      N2448   1.443       .  S
C2442      C2443   1.394       .  A
C2442      H2447   1.086       .  S
C2443      C2444   1.413       .  A
C2444      N2445   1.443       .  S
N2445      O2449   1.263   1_545  A
N2445      O2450   1.263       .  A
N2448      O2451   1.263   1_565  A
N2448      O2452   1.263       .  A
C2453      C2454   1.409       .  A
C2453      C2458   1.420       .  A
C2453      H2460   1.083       .  S
C2454      C2455   1.414       .  A
C2455      C2456   1.401       .  A
C2455      N2462   1.431       .  S
C2456      C2457   1.407       .  A
C2456      H2461   1.085       .  S
C2457      C2458   1.423       .  A
C2458      N2459   1.437       .  S
N2459      O2463   1.263       .  A
N2459      O2464   1.261   1_545  A
N2462      O2465   1.262       .  A
N2462      O2466   1.262       .  A
C2467      C2468   1.397       .  A
C2467      C2472   1.398       .  A
C2467      H2474   1.080       .  S
C2468      C2469   1.425       .  A
C2469      C2470   1.414       .  A
C2469      N2476   1.439       .  S
C2470      C2471   1.404       .  A
C2470      H2475   1.083       .  S
C2471      C2472   1.425       .  A
C2472      N2473   1.434       .  S
N2473      O2477   1.263       .  A
N2473      O2478   1.262       .  A
N2476      O2479   1.263       .  A
N2476      O2480   1.263       .  A
C2481      C2482   1.406       .  A
C2481      C2486   1.413       .  A
C2481      H2488   1.084       .  S
C2482      C2483   1.419       .  A
C2483      C2484   1.396       .  A
C2483      N2490   1.429       .  S
C2484      C2485   1.389       .  A
C2484      H2489   1.085       .  S
C2485      C2486   1.419       .  A
C2486      N2487   1.439       .  S
N2487      O2491   1.263       .  A
N2487      O2492   1.261       .  A
N2490      O2493   1.255       .  A
N2490      O2494   1.263       .  A
C2495      C2496   1.410       .  A
C2495      C2500   1.415       .  A
C2495      H2502   1.083       .  S
C2496      C2497   1.420       .  A
C2497      C2498   1.398       .  A
C2497      N2504   1.434       .  S
C2498      C2499   1.404       .  A
C2498      H2503   1.085       .  S
C2499      C2500   1.417       .  A
C2500      N2501   1.435       .  S
N2501      O2505   1.263       .  A
N2501      O2506   1.262       .  A
N2504      O2507   1.262       .  A
N2504      O2508   1.262       .  A
C2509      C2510   1.406       .  A
C2509      C2514   1.406       .  A
C2509      H2516   1.083       .  S
C2510      C2511   1.417   1_545  A
C2511      C2512   1.384       .  A
C2511      N2518   1.430       .  S
C2512      C2513   1.397       .  A
C2512      H2517   1.085       .  S
C2513      C2514   1.414   1_565  A
C2514      N2515   1.441       .  S
N2515      O2519   1.263       .  A
N2515      O2520   1.263       .  A
N2518      O2521   1.262       .  A
N2518      O2522   1.262       .  A
C2523      C2524   1.399       .  A
C2523      C2528   1.393       .  A
C2523      H2530   1.085       .  S
C2524      C2525   1.423       .  A
C2525      C2526   1.421       .  A
C2525      N2532   1.435       .  S
C2526      C2527   1.406       .  A
C2526      H2531   1.083       .  S
C2527      C2528   1.406       .  A
C2528      N2529   1.422       .  S
N2529      O2533   1.262       .  A
N2529      O2534   1.260       .  A
N2532      O2535   1.263       .  A
N2532      O2536   1.262   1_565  A
C2537      C2538   1.400       .  A
C2537      C2542   1.399       .  A
C2537      H2544   1.084       .  S
C2538      C2539   1.414       .  A
C2539      C2540   1.403       .  A
C2539      N2546   1.443       .  S
C2540      C2541   1.401   1_565  A
C2540      H2545   1.084   1_565  S
C2541      C2542   1.413   1_545  A
C2542      N2543   1.443   1_565  S
N2543      O2547   1.263       .  A
N2543      O2548   1.263   1_545  A
N2546      O2549   1.263       .  A
N2546      O2550   1.263       .  A
C2551      C2552   1.408       .  A
C2551      C2556   1.408       .  A
C2551      H2558   1.084       .  S
C2552      C2553   1.410       .  A
C2553      C2554   1.395       .  A
C2553      N2560   1.428       .  S
C2554      C2555   1.404       .  A
C2554      H2559   1.084       .  S
C2555      C2556   1.415       .  A
C2556      N2557   1.431       .  S
N2557      O2561   1.263       .  A
N2557      O2562   1.261       .  A
N2560      O2563   1.259       .  A
N2560      O2564   1.262       .  A
C2565      C2566   1.408       .  A
C2565      C2570   1.419       .  A
C2565      H2572   1.083       .  S
C2566      C2567   1.430       .  A
C2567      C2568   1.382       .  A
C2567      N2574   1.427       .  S
C2568      C2569   1.380       .  A
C2568      H2573   1.085       .  S
C2569      C2570   1.423       .  A
C2570      N2571   1.441       .  S
N2571      O2575   1.263       .  A
N2571      O2576   1.263       .  A
N2574      O2577   1.259       .  A
N2574      O2578   1.263       .  A
C2579      C2580   1.408       .  A
C2579      C2584   1.407       .  A
C2579      H2586   1.083       .  S
C2580      C2581   1.420       .  A
C2581      C2582   1.420       .  A
C2581      N2588   1.438       .  S
C2582      C2583   1.410       .  A
C2582      H2587   1.084       .  S
C2583      C2584   1.415       .  A
C2584      N2585   1.442       .  S
N2585      O2589   1.263       .  A
N2585      O2590   1.263       .  A
N2588      O2591   1.262       .  A
N2588      O2592   1.263       .  A
