geometry optimzed in LAMMPS
_audit_creation_date              2020-12-01 
_audit_creation_method            'lammps2cif' 
_symmetry_space_group_name_H-M    'P1' 
_symmetry_Int_Tables_number       1 
_symmetry_cell_setting            triclinic 
loop_ 
_symmetry_equiv_pos_as_xyz 
  x,y,z 
_cell_length_a                    39.2830119 
_cell_length_b                    39.32665599410837 
_cell_length_c                    71.91329071608003 
_cell_angle_alpha                 89.96052488259943 
_cell_angle_beta                  89.9726992157621 
_cell_angle_gamma                 119.96270276819817 
loop_ 
_atom_site_label 
_atom_site_type_symbol 
_atom_site_fract_x 
_atom_site_fract_y 
_atom_site_fract_z 
_atom_site_charge 
Zr1        Zr  0.72386687  0.83082766  0.40599093     2.17500
O2          O  0.75360532  0.87379695  0.43274404    -0.51600
O3          O  0.77692378  0.81776475  0.39931973    -0.74800
O4          O  0.72060595  0.79419982  0.43377451    -0.81500
O5          O  0.75871430  0.91514350  0.37177888    -0.83300
O6          O  0.66018953  0.74007684  0.43575312    -0.78900
O7          O  0.77591356  0.89746002  0.39877235    -0.90600
O8          O  0.75824940  0.77640847  0.37475354    -0.76500
O9          O  0.68810034  0.76267005  0.39858282    -0.86000
O10         O  0.72745253  0.82717676  0.37309715    -0.85700
O11         O  0.65811969  0.80674872  0.41734973    -0.72400
O12         O  0.69491527  0.86696708  0.39343998    -0.84600
Zr13       Zr  0.59670115  0.77163758  0.36336865     2.26400
Zr14       Zr  0.62189193  0.73872624  0.40872686     2.06300
Zr15       Zr  0.69722971  0.86164817  0.36040128     2.10000
Zr16       Zr  0.69187196  0.75911566  0.36584936     1.78800
O17         O  0.68662848  0.91654565  0.35422014    -0.93400
O18         O  0.68421715  0.69608715  0.37516993    -0.41200
O19         O  0.66212010  0.79373648  0.35293705    -0.77800
O20         O  0.62490994  0.73398854  0.37555376    -0.96500
O21         O  0.59263113  0.77452521  0.39630497    -0.89800
O22         O  0.63180613  0.83958643  0.37094932    -0.92700
C23         C  0.78337253  0.79780131  0.38710332     1.01100
C24         C  0.78160588  0.92217001  0.38572407     1.14000
C25         C  0.69510816  0.76255450  0.44195318     1.04800
O26         O  0.61616757  0.67444798  0.41196710    -0.94800
O27         O  0.55565699  0.68795916  0.39944256    -0.90600
O28         O  0.54246111  0.70873359  0.37245128    -0.83700
C29         C  0.53305415  0.68369385  0.38562234     1.11400
O30         O  0.66075518  0.88605430  0.43039856    -0.96800
Zr31       Zr  0.62908523  0.84218245  0.40413535     1.88900
O32         O  0.54937549  0.79366672  0.36787758    -0.73400
O33         O  0.58038272  0.72922461  0.43564181    -0.52700
O34         O  0.58705407  0.81933323  0.43158727    -0.97400
O35         O  0.63797787  0.90711593  0.39795172    -0.54600
O36         O  0.56516847  0.82946638  0.39436668    -0.74000
C37         C  0.54237471  0.81223303  0.38058155     0.98400
O38         O  0.55717651  0.73308357  0.33699636    -0.62800
O39         O  0.74677724  0.88458193  0.33589584    -0.57600
O40         O  0.60819494  0.79236276  0.33090753    -0.94300
O41         O  0.67074273  0.84352074  0.32916972    -0.92700
O42         O  0.72951512  0.77870943  0.33702996    -0.93000
O43         O  0.66274924  0.71156201  0.34074866    -0.91800
C44         C  0.63825400  0.81783038  0.32174289     1.17200
H45         H  0.75428995  0.83934385  0.36881473     0.33200
H46         H  0.60959573  0.70686090  0.37163540     0.44000
H47         H  0.62071901  0.85374620  0.36485721     0.37600
H48         H  0.65851481  0.80925262  0.43069396     0.34000
H49         H  0.70169461  0.69192975  0.36671074     0.25800
H50         H  0.57572773  0.70421665  0.44120594     0.31800
H51         H  0.57381229  0.83514027  0.43192500     0.37700
H52         H  0.74169613  0.76196986  0.33622163     0.32100
H53         H  0.75826007  0.91343067  0.33546676     0.31000
H54         H  0.69371628  0.92299079  0.34095862     0.32700
H55         H  0.62559417  0.90498146  0.38570001     0.31700
H56         H  0.64007200  0.71404171  0.33656165     0.35700
H57         H  0.55682823  0.70775363  0.33763564     0.28400
H58         H  0.77403371  0.86813879  0.43732868     0.32600
H59         H  0.64363716  0.89698953  0.43364590     0.35500
H60         H  0.76805797  0.88053298  0.34076620     0.28100
H61         H  0.52988099  0.72663008  0.33969326     0.40900
H62         H  0.61324703  0.66443681  0.39909917     0.31000
H63         H  0.69714970  0.70094539  0.38746753     0.38600
H64         H  0.66649847  0.92394214  0.39560875     0.30500
H65         H  0.59765288  0.74957975  0.44465607     0.30500
H66         H  0.73310311  0.86364174  0.44252706     0.30800
Zr67       Zr  0.86722232  0.72320153  0.59209206     2.17500
O68         O  0.90968974  0.75938406  0.56602664    -0.51600
O69         O  0.85600064  0.77652660  0.60007376    -0.74800
O70         O  0.82871858  0.72008177  0.56472275    -0.81500
O71         O  0.95655930  0.75177067  0.62333501    -0.83300
O72         O  0.76981639  0.66328380  0.56576855    -0.78900
O73         O  0.93625466  0.77072100  0.59778551    -0.90600
O74         O  0.81899866  0.75982842  0.62636963    -0.76500
O75         O  0.80024885  0.69013382  0.60165261    -0.86000
O76         O  0.86830622  0.72650615  0.62522484    -0.85700
O77         O  0.83902701  0.65761512  0.58007711    -0.72400
O78         O  0.90285061  0.69210142  0.60258475    -0.84600
Zr79       Zr  0.80784423  0.59448149  0.63364368     2.26400
Zr80       Zr  0.77235053  0.62394999  0.59088207     2.06300
Zr81       Zr  0.90139379  0.69293722  0.63590246     2.10000
Zr82       Zr  0.80121560  0.69329578  0.63453062     1.78800
O83         O  0.95287348  0.67626353  0.64011298    -0.93400
O84         O  0.73910127  0.69098723  0.62834768    -0.41200
O85         O  0.83410954  0.65989032  0.64507913    -0.77800
O86         O  0.77156039  0.62625051  0.62413323    -0.96500
O87         O  0.80736642  0.59194561  0.60057318    -0.89800
O88         O  0.87503007  0.62751546  0.62441299    -0.92700
C89         C  0.83839428  0.78363412  0.61319767     1.01100
C90         C  0.96264732  0.77499563  0.60964332     1.14000
C91         C  0.79405798  0.69644682  0.55848574     1.04800
O92         O  0.70850582  0.62007698  0.59064132    -0.94800
O93         O  0.72145209  0.55836333  0.59989121    -0.90600
O94         O  0.73974500  0.54616784  0.62791424    -0.83700
C95         C  0.71516697  0.53749948  0.61458359     1.11400
O96         O  0.90798734  0.65654993  0.56191355    -0.96800
Zr97       Zr  0.87448009  0.62681959  0.59111303     1.88900
O98         O  0.83019793  0.54771919  0.62720253    -0.73400
O99         O  0.75852637  0.58583892  0.56238080    -0.52700
O100        O  0.85474435  0.58191459  0.56476061    -0.97400
O101        O  0.94211226  0.64282466  0.59676726    -0.54600
O102        O  0.86378473  0.56358208  0.60005773    -0.74000
C103        C  0.84840370  0.54115190  0.61407303     0.98400
O104        O  0.77062816  0.54050864  0.65531286    -0.62800
O105        O  0.93207087  0.74301269  0.65993282    -0.57600
O106        O  0.82896060  0.61090386  0.66597048    -0.94300
O107        O  0.88671325  0.66824686  0.66769678    -0.92700
O108        O  0.82809757  0.73085033  0.66298081    -0.93000
O109        O  0.75644885  0.66751819  0.66088341    -0.91800
C110        C  0.85764239  0.63808738  0.67521484     1.17200
H111        H  0.88211989  0.75333009  0.62955858     0.33200
H112        H  0.74501924  0.61249093  0.62877541     0.44000
H113        H  0.88906874  0.61545526  0.62966046     0.37600
H114        H  0.83953376  0.65804435  0.56664031     0.34000
H115        H  0.74154934  0.71461782  0.63451179     0.25800
H116        H  0.76475880  0.56497643  0.56538487     0.31800
H117        H  0.87565085  0.57498494  0.56346049     0.37700
H118        H  0.85463274  0.73398799  0.66410235     0.32100
H119        H  0.95999213  0.74986302  0.66014275     0.31000
H120        H  0.95790849  0.67851522  0.65366742     0.32700
H121        H  0.94861788  0.63030804  0.58650100     0.31700
H122        H  0.76071656  0.64659426  0.66605173     0.35700
H123        H  0.79015574  0.53535045  0.66146047     0.28400
H124        H  0.89947410  0.77608530  0.56110596     0.32600
H125        H  0.92660349  0.64697048  0.55962040     0.35500
H126        H  0.93238987  0.76663753  0.65493871     0.28100
H127        H  0.76105191  0.55113493  0.66522292     0.40900
H128        H  0.69957557  0.61521590  0.60374539     0.31000
H129        H  0.73965316  0.69655743  0.61488862     0.38600
H130        H  0.94081934  0.62736660  0.60788206     0.30500
H131        H  0.72953906  0.57191064  0.56122550     0.30500
H132        H  0.90385062  0.73942790  0.55629449     0.30800
Zr133      Zr  0.14801886  0.87076673  0.40382868     2.17500
O134        O  0.10193456  0.86352860  0.42832081    -0.51600
O135        O  0.16184641  0.93671242  0.39596751    -0.74800
O136        O  0.18228606  0.90137808  0.43290357    -0.81500
O137        O  0.06373503  0.82017745  0.36912885    -0.83300
O138        O  0.23971980  0.90049517  0.43328999    -0.78900
O139        O  0.08027215  0.85230868  0.39690474    -0.90600
O140        O  0.20179842  0.95783100  0.37060483    -0.76500
O141        O  0.21618102  0.90336268  0.39629794    -0.86000
O142        O  0.15187180  0.87664949  0.37078769    -0.85700
O143        O  0.17133819  0.82901493  0.41583300    -0.72400
O144        O  0.11250104  0.80522042  0.39160420    -0.84600
Zr145      Zr  0.20897225  0.80284461  0.36186361     2.26400
Zr146      Zr  0.23942333  0.86112388  0.40724519     2.06300
Zr147      Zr  0.11763962  0.81168888  0.35846552     2.10000
Zr148      Zr  0.22004561  0.90905697  0.36337413     1.78800
O149        O  0.06109366  0.74642992  0.35400374    -0.93400
O150        O  0.28229852  0.96662511  0.37164478    -0.41200
O151        O  0.18565361  0.84462454  0.35060188    -0.77800
O152        O  0.24565595  0.86855997  0.37410061    -0.96500
O153        O  0.20500133  0.79606555  0.39483127    -0.89800
O154        O  0.14074447  0.76951982  0.36943363    -0.92700
C155        C  0.18049590  0.96164149  0.38299105     1.01100
C156        C  0.05633423  0.83485669  0.38343704     1.14000
C157        C  0.21551542  0.90998626  0.44025265     1.04800
O158        O  0.30483356  0.91863445  0.40890394    -0.94800
O159        O  0.28877804  0.84326095  0.40010548    -0.90600
O160        O  0.27422517  0.81732153  0.37106994    -0.83700
C161        C  0.29602558  0.82917779  0.38553840     1.11400
O162        O  0.09392792  0.75076435  0.42929805    -0.96800
Zr163      Zr  0.13729108  0.76439006  0.40262186     1.88900
O164        O  0.18732168  0.73377316  0.36676300    -0.73400
O165        O  0.24737966  0.83005471  0.43495016    -0.52700
O166        O  0.16532388  0.74813384  0.42908987    -0.97400
O167        O  0.07153974  0.70821568  0.39844993    -0.54600
O168        O  0.14581171  0.71124017  0.39149032    -0.74000
C169        C  0.16548536  0.70697289  0.37842493     0.98400
O170        O  0.24832024  0.79446596  0.33803494    -0.62800
O171        O  0.09751886  0.83932504  0.33327029    -0.57600
O172        O  0.18956759  0.79687315  0.32898798    -0.94300
O173        O  0.13187443  0.79667135  0.32752698    -0.92700
O174        O  0.20268477  0.92692042  0.33392326    -0.93000
O175        O  0.26851045  0.92400229  0.33895846    -0.91800
C176        C  0.16037161  0.79464361  0.31980607     1.17200
H177        H  0.13947018  0.89091395  0.36626043     0.33200
H178        H  0.27301854  0.88093968  0.37052253     0.44000
H179        H  0.12663778  0.74422393  0.36339881     0.37600
H180        H  0.16854240  0.82706510  0.42916486     0.34000
H181        H  0.28672608  0.98620649  0.36189031     0.25800
H182        H  0.27263468  0.85014532  0.44041078     0.31800
H183        H  0.15400380  0.71932194  0.42848521     0.37700
H184        H  0.18040502  0.90215059  0.32918538     0.32100
H185        H  0.06852464  0.82309387  0.33272833     0.31000
H186        H  0.04490197  0.74164744  0.36530617     0.32700
H187        H  0.07252147  0.68584074  0.40421190     0.31700
H188        H  0.26533478  0.89821163  0.33547972     0.35700
H189        H  0.27302434  0.81991490  0.33676523     0.28400
H190        H  0.11223673  0.88991677  0.43385954     0.32600
H191        H  0.09054089  0.72625050  0.43489773     0.35500
H192        H  0.10272884  0.86524609  0.33779976     0.28100
H193        H  0.25602446  0.77577484  0.34300176     0.40900
H194        H  0.30129247  0.94065182  0.40472326     0.31000
H195        H  0.27652884  0.97708740  0.38299453     0.38600
H196        H  0.06939484  0.70260458  0.38495445     0.30500
H197        H  0.22715399  0.82809976  0.44379100     0.30500
H198        H  0.10514057  0.84750971  0.43802975     0.30800
Zr199      Zr  0.28231482  0.11607472  0.59295677     2.17500
O200        O  0.25060931  0.12901828  0.56693038    -0.51600
O201        O  0.23049172  0.04980077  0.59875156    -0.74800
O202        O  0.28325645  0.08119134  0.56534649    -0.81500
O203        O  0.24666981  0.16455528  0.62719491    -0.83300
O204        O  0.34291573  0.08534298  0.56363005    -0.78900
O205        O  0.22971113  0.12860711  0.60052323    -0.90600
O206        O  0.25054990  0.02462715  0.62189978    -0.76500
O207        O  0.31794899  0.08339681  0.59974972    -0.86000
O208        O  0.27833181  0.10743629  0.62584186    -0.85700
O209        O  0.34733222  0.15858084  0.58128136    -0.72400
O210        O  0.31028490  0.18031073  0.60614903    -0.84600
Zr211      Zr  0.40985113  0.18361660  0.63492380     2.26400
Zr212      Zr  0.38346043  0.12635900  0.58924104     2.06300
Zr213      Zr  0.30822894  0.17174234  0.63916104     2.10000
Zr214      Zr  0.31471902  0.07541035  0.63243223     1.78800
O215        O  0.31928208  0.23729660  0.64560814    -0.93400
O216        O  0.32472638  0.02087736  0.62429658    -0.41200
O217        O  0.34471953  0.13945161  0.64574366    -0.77800
O218        O  0.38137233  0.11801057  0.62235807    -0.96500
O219        O  0.41262697  0.19117239  0.60203149    -0.89800
O220        O  0.37356436  0.21586975  0.62837936    -0.92700
C221        C  0.22565544  0.02196699  0.60962549     1.01100
C222        C  0.22342576  0.14723538  0.61344350     1.14000
C223        C  0.30775731  0.07291678  0.55770022     1.04800
O224        O  0.39455554  0.07101439  0.58612868    -0.94800
O225        O  0.45013839  0.14276778  0.59737147    -0.90600
O226        O  0.46212238  0.17152961  0.62581841    -0.83700
C227        C  0.47198942  0.15864545  0.61166606     1.11400
O228        O  0.34337698  0.23304151  0.56862606    -0.96800
Zr229      Zr  0.37557047  0.22244409  0.59522396     1.88900
O230        O  0.45406971  0.25476944  0.63173108    -0.73400
O231        O  0.41999551  0.15752623  0.56099123    -0.52700
O232        O  0.41984827  0.24630371  0.56855279    -0.97400
O233        O  0.35867003  0.27284552  0.60234642    -0.54600
O234        O  0.43710045  0.27630221  0.60610569    -0.74000
C235        C  0.45960010  0.28185292  0.62001009     0.98400
O236        O  0.46329366  0.19469655  0.65591688    -0.62800
O237        O  0.25777709  0.14605813  0.66326041    -0.57600
O238        O  0.39367628  0.18219086  0.66790475    -0.94300
O239        O  0.33419968  0.17814086  0.67079061    -0.92700
O240        O  0.27466737  0.05741581  0.66048810    -0.93000
O241        O  0.34010972  0.05276389  0.65748333    -0.91800
C242        C  0.36533951  0.18007454  0.67772994     1.17200
H243        H  0.25136019  0.09208046  0.63004338     0.33200
H244        H  0.39677485  0.10607608  0.62593841     0.44000
H245        H  0.38414923  0.24071916  0.63470976     0.37600
H246        H  0.34661799  0.16091816  0.56794067     0.34000
H247        H  0.30138565  0.99727629  0.62929890     0.25800
H248        H  0.44267794  0.18253579  0.56524802     0.31800
H249        H  0.43227000  0.27525507  0.56900472     0.37700
H250        H  0.28084243  0.08274812  0.66621958     0.32100
H251        H  0.24848882  0.16523009  0.66415175     0.31000
H252        H  0.31851946  0.23862470  0.65933885     0.32700
H253        H  0.37349738  0.29416163  0.59327539     0.31700
H254        H  0.36865471  0.06523148  0.65499800     0.35700
H255        H  0.46847829  0.21762460  0.66364811     0.28400
H256        H  0.22969007  0.10286702  0.56271960     0.32600
H257        H  0.36146140  0.26001641  0.56415453     0.35500
H258        H  0.23540262  0.12220173  0.65786548     0.28100
H259        H  0.45244313  0.17208560  0.66457160     0.40900
H260        H  0.39176080  0.06043701  0.59887871     0.31000
H261        H  0.32132378  0.01827745  0.61063610     0.38600
H262        H  0.37143544  0.28400750  0.61442452     0.30500
H263        H  0.43157410  0.14126213  0.55720982     0.30500
H264        H  0.27025769  0.13878393  0.55676636     0.30800
Zr265      Zr  0.11549809  0.25497655  0.40100906     2.17500
O266        O  0.13747685  0.22520518  0.42428788    -0.51600
O267        O  0.04903903  0.20074254  0.39724971    -0.74800
O268        O  0.08697923  0.25608500  0.43079800    -0.81500
O269        O  0.15794662  0.21969188  0.36345559    -0.83300
O270        O  0.08780555  0.31426903  0.43269700    -0.78900
O271        O  0.12733406  0.20276782  0.39151628    -0.90600
O272        O  0.02088819  0.21696724  0.37394437    -0.76500
O273        O  0.07964705  0.28827339  0.39600831    -0.86000
O274        O  0.10236602  0.25008906  0.36851431    -0.85700
O275        O  0.15728636  0.32092759  0.41189915    -0.72400
O276        O  0.17850748  0.28555082  0.38612133    -0.84600
Zr277      Zr  0.17121733  0.38125567  0.35821333     2.26400
Zr278      Zr  0.12169423  0.35463202  0.40572158     2.06300
Zr279      Zr  0.16503388  0.28212040  0.35363465     2.10000
Zr280      Zr  0.06665032  0.28342816  0.36366371     1.78800
O281        O  0.23052089  0.29311164  0.34691971    -0.93400
O282        O  0.00911956  0.28508866  0.37514188    -0.41200
O283        O  0.12883674  0.31506135  0.34825461    -0.77800
O284        O  0.10777066  0.35048408  0.37313788    -0.96500
O285        O  0.18415802  0.38571842  0.39069112    -0.89800
O286        O  0.20739567  0.34825437  0.36328866    -0.92700
C287        C  0.02036024  0.19309618  0.38629378     1.01100
C288        C  0.14344262  0.19644069  0.37744556     1.14000
C289        C  0.07910505  0.28027698  0.43905405     1.04800
O290        O  0.06406905  0.36038083  0.41246296    -0.94800
O291        O  0.13269040  0.41959678  0.39689946    -0.90600
O292        O  0.16511769  0.43574472  0.36939305    -0.83700
C293        C  0.14944146  0.44334461  0.38322650     1.11400
O294        O  0.23739788  0.32213718  0.42096642    -0.96800
Zr295      Zr  0.21921909  0.35196347  0.39597421     1.88900
O296        O  0.23962970  0.43395254  0.36108733    -0.73400
O297        O  0.15782804  0.39612851  0.43198114    -0.52700
O298        O  0.24253363  0.39621108  0.42256325    -0.97400
O299        O  0.27610853  0.34603536  0.38737609    -0.54600
O300        O  0.26689405  0.41564841  0.38411130    -0.74000
C301        C  0.26828800  0.43992151  0.37184168     0.98400
O302        O  0.14810673  0.40984563  0.33453770    -0.62800
O303        O  0.13929496  0.23534476  0.32804022    -0.57600
O304        O  0.18769232  0.37473063  0.32627169    -0.94300
O305        O  0.17252639  0.31117339  0.32312016    -0.92700
O306        O  0.04663452  0.24732957  0.33448090    -0.93000
O307        O  0.04169830  0.31132226  0.34082318    -0.91800
C308        C  0.18165933  0.34496819  0.31645174     1.17200
H309        H  0.08771875  0.22314905  0.36440915     0.33200
H310        H  0.09443909  0.36485592  0.37033397     0.44000
H311        H  0.23151216  0.36028282  0.35617098     0.37600
H312        H  0.16175427  0.32065838  0.42507722     0.34000
H313        H  0.98685085  0.26457238  0.36793567     0.25800
H314        H  0.13782001  0.39875802  0.43922352     0.31800
H315        H  0.27155417  0.41012014  0.42159630     0.37700
H316        H  0.01769383  0.23087958  0.33540851     0.32100
H317        H  0.15827988  0.22595391  0.32646017     0.31000
H318        H  0.23642934  0.28054914  0.35740277     0.32700
H319        H  0.29868001  0.36854566  0.39350109     0.31700
H320        H  0.06377855  0.33819231  0.33855846     0.35700
H321        H  0.13304440  0.38853639  0.32549916     0.28400
H322        H  0.11334112  0.20561598  0.43078226     0.32600
H323        H  0.26461963  0.34179696  0.42449027     0.35500
H324        H  0.11520969  0.21243959  0.33297293     0.28100
H325        H  0.12752634  0.41354574  0.34056965     0.40900
H326        H  0.04672233  0.34846471  0.40156953     0.31000
H327        H  0.00500583  0.27433360  0.38792047     0.38600
H328        H  0.28022923  0.35246831  0.37396213     0.30500
H329        H  0.16446103  0.37961296  0.43986360     0.30500
H330        H  0.15217324  0.24620357  0.43350523     0.30800
Zr331      Zr  0.88447393  0.13470683  0.59514087     2.17500
O332        O  0.86705194  0.08862847  0.56941928    -0.51600
O333        O  0.95050214  0.14633160  0.60017853    -0.74800
O334        O  0.91773100  0.16992853  0.56685767    -0.81500
O335        O  0.84037120  0.05463614  0.63159060    -0.83300
O336        O  0.91397967  0.22566889  0.56520910    -0.78900
O337        O  0.87158430  0.06977718  0.60364755    -0.90600
O338        O  0.97674018  0.18959736  0.62406396    -0.76500
O339        O  0.91855151  0.20320136  0.60111434    -0.86000
O340        O  0.89583716  0.14126294  0.62783865    -0.85700
O341        O  0.84140520  0.15742664  0.58440219    -0.72400
O342        O  0.82099525  0.10083847  0.60967374    -0.84600
Zr343      Zr  0.82449267  0.20097622  0.63855790     2.26400
Zr344      Zr  0.87543582  0.22615785  0.59147233     2.06300
Zr345      Zr  0.83284540  0.10918517  0.64241655     2.10000
Zr346      Zr  0.93023956  0.20988086  0.63356640     1.78800
O347        O  0.76833194  0.05353017  0.64954652    -0.93400
O348        O  0.98715623  0.26876373  0.62146167    -0.41200
O349        O  0.86768489  0.17812651  0.64873334    -0.77800
O350        O  0.88832786  0.23478753  0.62417245    -0.96500
O351        O  0.81237639  0.19377465  0.60600489    -0.89800
O352        O  0.78935836  0.13207255  0.63282069    -0.92700
C353        C  0.97803424  0.16653140  0.61182721     1.01100
C354        C  0.85498850  0.04652089  0.61744417     1.14000
C355        C  0.92553388  0.20248357  0.55905422     1.04800
O356        O  0.92996962  0.29266141  0.58731908    -0.94800
O357        O  0.86237678  0.27808050  0.59992475    -0.90600
O358        O  0.83833989  0.26598653  0.62942303    -0.83700
C359        C  0.85074024  0.28730738  0.61475409     1.11400
O360        O  0.75518599  0.07233134  0.57726946    -0.96800
Zr361      Zr  0.77899187  0.12530591  0.60000852     1.88900
O362        O  0.75596833  0.18382194  0.63517511    -0.73400
O363        O  0.83964619  0.22978148  0.56458101    -0.52700
O364        O  0.75904724  0.14313212  0.57121489    -0.97400
O365        O  0.72177859  0.06452918  0.61036811    -0.54600
O366        O  0.73343198  0.14650333  0.60911759    -0.74000
C367        C  0.73006851  0.16610351  0.62248134     0.98400
O368        O  0.83245435  0.25055655  0.66121255    -0.62800
O369        O  0.86183132  0.08850543  0.66679375    -0.57600
O370        O  0.81301667  0.17864074  0.67072595    -0.94300
O371        O  0.82342915  0.12718747  0.67350164    -0.92700
O372        O  0.94853025  0.19365753  0.66321264    -0.93000
O373        O  0.95550592  0.26424554  0.65552700    -0.91800
C374        C  0.81631837  0.15309517  0.68043495     1.17200
H375        H  0.91053690  0.12901204  0.63195314     0.33200
H376        H  0.90150905  0.26229996  0.62721245     0.44000
H377        H  0.76495563  0.11938815  0.63969633     0.37600
H378        H  0.83755102  0.15342167  0.57116100     0.34000
H379        H  0.00980033  0.27078571  0.62845787     0.25800
H380        H  0.85655149  0.25656002  0.55956994     0.31800
H381        H  0.73045138  0.13282066  0.57257092     0.37700
H382        H  0.97725467  0.21156409  0.66417647     0.32100
H383        H  0.84362440  0.05997753  0.66833053     0.31000
H384        H  0.75759510  0.06298876  0.65944864     0.32700
H385        H  0.70883358  0.07242968  0.61987126     0.31700
H386        H  0.93207116  0.26551914  0.65957530     0.35700
H387        H  0.80656036  0.24059886  0.66725530     0.28400
H388        H  0.89241158  0.09268025  0.56456334     0.32600
H389        H  0.72825119  0.06627150  0.57397304     0.35500
H390        H  0.88586226  0.09054499  0.66125550     0.28100
H391        H  0.85031497  0.25092589  0.67102848     0.40900
H392        H  0.94913093  0.29572155  0.59703699     0.31000
H393        H  0.99081287  0.26191452  0.60865216     0.38600
H394        H  0.73277069  0.05062438  0.61743068     0.30500
H395        H  0.84122173  0.21225145  0.55517479     0.30500
H396        H  0.85695817  0.09883599  0.55955432     0.30800
Zr397      Zr  0.15630086  0.26198613  0.09274765     2.17500
O398        O  0.11541948  0.23273162  0.06535931    -0.51600
O399        O  0.17013360  0.20991350  0.09924424    -0.74800
O400        O  0.19626569  0.26486092  0.06625921    -0.81500
O401        O  0.07022028  0.22601082  0.12533875    -0.83300
O402        O  0.24850354  0.32689197  0.06438667    -0.78900
O403        O  0.08962416  0.20954124  0.09875645    -0.90600
O404        O  0.21308683  0.22913895  0.12325536    -0.76500
O405        O  0.22380574  0.29808318  0.10110980    -0.86000
O406        O  0.15788229  0.25744347  0.12577380    -0.85700
O407        O  0.17944968  0.32723946  0.08131588    -0.72400
O408        O  0.11867017  0.28971305  0.10485140    -0.84600
Zr409      Zr  0.21222025  0.38867745  0.13564596     2.26400
Zr410      Zr  0.24670508  0.36384195  0.09096642     2.06300
Zr411      Zr  0.12233662  0.28721142  0.13788255     2.10000
Zr412      Zr  0.22549789  0.29335729  0.13386281     1.78800
O413        O  0.06654698  0.29726011  0.14236772    -0.93400
O414        O  0.29108745  0.30431566  0.12737288    -0.41200
O415        O  0.19009962  0.32302667  0.14631493    -0.77800
O416        O  0.25017871  0.36018020  0.12411020    -0.96500
O417        O  0.20996525  0.39241772  0.10273551    -0.89800
O418        O  0.14439365  0.35283850  0.12744102    -0.92700
C419        C  0.19162209  0.20421219  0.11080128     1.01100
C420        C  0.06412321  0.20314225  0.11145636     1.14000
C421        C  0.22796179  0.29145107  0.05854048     1.04800
O422        O  0.31186197  0.37178093  0.08726869    -0.94800
O423        O  0.29763042  0.42838782  0.10098364    -0.90600
O424        O  0.27820008  0.44101422  0.12854355    -0.83700
C425        C  0.30289525  0.45026251  0.11515826     1.11400
O426        O  0.09551646  0.31882593  0.06964293    -0.96800
Zr427      Zr  0.14265972  0.35520568  0.09418353     1.88900
O428        O  0.19043264  0.43614895  0.12943593    -0.73400
O429        O  0.25343641  0.40629754  0.06486385    -0.52700
O430        O  0.16469854  0.39405994  0.06574937    -0.97400
O431        O  0.07896249  0.34998530  0.09984407    -0.54600
O432        O  0.15724880  0.42041223  0.10210890    -0.74000
C433        C  0.17346775  0.44331590  0.11592918     0.98400
O434        O  0.25354303  0.43826379  0.15848001    -0.62800
O435        O  0.09547714  0.23639819  0.16178954    -0.57600
O436        O  0.18934891  0.37394911  0.16783193    -0.94300
O437        O  0.13683059  0.31229156  0.16944303    -0.92700
O438        O  0.20339242  0.25107410  0.16114759    -0.93000
O439        O  0.26872643  0.32179036  0.16058113    -0.91800
C440        C  0.16304631  0.34437735  0.17693202     1.17200
H441        H  0.14587801  0.23048552  0.12989665     0.33200
H442        H  0.27716380  0.37520288  0.12825808     0.44000
H443        H  0.12994652  0.36379516  0.13333073     0.37600
H444        H  0.17760367  0.32685793  0.06794564     0.34000
H445        H  0.29422393  0.28626920  0.13588133     0.25800
H446        H  0.27870416  0.41253885  0.05898973     0.31800
H447        H  0.14883947  0.40720471  0.06491302     0.37700
H448        H  0.21940831  0.23804368  0.16125350     0.32100
H449        H  0.06697181  0.22718768  0.16213955     0.31000
H450        H  0.05262117  0.28998535  0.13028659     0.32700
H451        H  0.07925725  0.37111389  0.09222236     0.31700
H452        H  0.25893473  0.33757087  0.16693837     0.35700
H453        H  0.23648213  0.44648569  0.16486867     0.28400
H454        H  0.12140548  0.21232335  0.06112806     0.32600
H455        H  0.08894409  0.33760829  0.06378109     0.35500
H456        H  0.09739126  0.21406036  0.15664990     0.28100
H457        H  0.26049952  0.42463319  0.16804722     0.40900
H458        H  0.31869833  0.36657985  0.09979348     0.31000
H459        H  0.28912359  0.29303248  0.11484900     0.38600
H460        H  0.07993205  0.35875201  0.11282387     0.30500
H461        H  0.23326928  0.38897750  0.05578881     0.30500
H462        H  0.12663633  0.25334385  0.05565348     0.30800
Zr463      Zr  0.27860986  0.14936505  0.90256952     2.17500
O464        O  0.24651639  0.10611557  0.92901580    -0.51600
O465        O  0.22488393  0.16144996  0.89587097    -0.74800
O466        O  0.28236145  0.18584621  0.93060057    -0.81500
O467        O  0.24647334  0.06224036  0.87003815    -0.83300
O468        O  0.34163439  0.24158506  0.93153992    -0.78900
O469        O  0.22931558  0.08131871  0.89658914    -0.90600
O470        O  0.24260270  0.20285101  0.87108944    -0.76500
O471        O  0.31326803  0.21721213  0.89470979    -0.86000
O472        O  0.27386073  0.15210668  0.86963330    -0.85700
O473        O  0.34443964  0.17360866  0.91364651    -0.72400
O474        O  0.30872869  0.11447000  0.88985375    -0.84600
Zr475      Zr  0.40501602  0.21037812  0.85880855     2.26400
Zr476      Zr  0.37945748  0.24135764  0.90474381     2.06300
Zr477      Zr  0.30460658  0.11809539  0.85688640     2.10000
Zr478      Zr  0.30871559  0.22009358  0.86193224     1.78800
O479        O  0.31176365  0.06107507  0.85082107    -0.93400
O480        O  0.31479933  0.28259349  0.87091628    -0.41200
O481        O  0.33886163  0.18599847  0.84866144    -0.77800
O482        O  0.37564281  0.24655408  0.87155676    -0.96500
O483        O  0.41038094  0.20758800  0.89170543    -0.89800
O484        O  0.37098617  0.14247123  0.86674311    -0.92700
C485        C  0.21810873  0.18105656  0.88360241     1.01100
C486        C  0.22389244  0.05565195  0.88414941     1.14000
C487        C  0.30728060  0.21839533  0.93822116     1.04800
O488        O  0.38810006  0.30606374  0.91088909    -0.94800
O489        O  0.44382004  0.29360057  0.89506469    -0.90600
O490        O  0.45553302  0.27686543  0.86650514    -0.83700
C491        C  0.46474567  0.30038414  0.88034026     1.11400
O492        O  0.34364071  0.08951732  0.92362023    -0.96800
Zr493      Zr  0.37499833  0.14008450  0.89983445     1.88900
O494        O  0.45539942  0.19229730  0.86379158    -0.73400
O495        O  0.41981194  0.24471766  0.93117881    -0.52700
O496        O  0.41421867  0.16671419  0.92791967    -0.97400
O497        O  0.37214186  0.07755938  0.89414672    -0.54600
O498        O  0.43932491  0.15474933  0.88977152    -0.74000
C499        C  0.46245236  0.17328484  0.87626849     0.98400
O500        O  0.44598715  0.24570282  0.83214692    -0.62800
O501        O  0.25245744  0.09914718  0.83395293    -0.57600
O502        O  0.39071074  0.18696228  0.82666617    -0.94300
O503        O  0.33216743  0.13010640  0.82565856    -0.92700
O504        O  0.27152099  0.20111963  0.83302985    -0.93000
O505        O  0.33865233  0.26885761  0.83732474    -0.91800
C506        C  0.36315001  0.15769398  0.81785459     1.17200
H507        H  0.24689191  0.13955496  0.86557076     0.33200
H508        H  0.38977142  0.27366627  0.86772483     0.44000
H509        H  0.38235399  0.12873426  0.86055507     0.37600
H510        H  0.34438751  0.17115514  0.92706034     0.34000
H511        H  0.29409462  0.28413623  0.86374859     0.25800
H512        H  0.44718978  0.25896046  0.92652332     0.31800
H513        H  0.43637969  0.16165780  0.92655227     0.37700
H514        H  0.26022040  0.21862168  0.83206849     0.32100
H515        H  0.24924878  0.07473738  0.82833559     0.31000
H516        H  0.30930663  0.04900484  0.86319918     0.32700
H517        H  0.39511427  0.07945886  0.90078447     0.31700
H518        H  0.35959206  0.26454287  0.83219343     0.35700
H519        H  0.44082357  0.26749677  0.82975101     0.28400
H520        H  0.22615615  0.11216688  0.93326184     0.32600
H521        H  0.36524867  0.09159619  0.93150970     0.35500
H522        H  0.22801327  0.09056936  0.84115653     0.28100
H523        H  0.47363560  0.25832258  0.83636851     0.40900
H524        H  0.37539053  0.31121779  0.90022456     0.31000
H525        H  0.30550063  0.27884410  0.88395604     0.38600
H526        H  0.37859464  0.07792383  0.88081792     0.30500
H527        H  0.41814147  0.26325525  0.93993058     0.30500
H528        H  0.26635476  0.11561229  0.93907828     0.30800
Zr529      Zr  0.11854128  0.84165109  0.09351890     2.17500
O530        O  0.13374630  0.89111947  0.06960002    -0.51600
O531        O  0.05152067  0.82738533  0.09826002    -0.74800
O532        O  0.08976687  0.81022128  0.06398229    -0.81500
O533        O  0.16291025  0.92141214  0.13054654    -0.83300
O534        O  0.09328140  0.75427327  0.06207915    -0.78900
O535        O  0.13437680  0.90757250  0.10191923    -0.90600
O536        O  0.02593980  0.78175794  0.12127027    -0.76500
O537        O  0.08631722  0.77262348  0.09834866    -0.86000
O538        O  0.10612505  0.83251100  0.12615419    -0.85700
O539        O  0.16307556  0.82120618  0.08218283    -0.72400
O540        O  0.18117706  0.87615366  0.10852479    -0.84600
Zr541      Zr  0.18196780  0.77699456  0.13583084     2.26400
Zr542      Zr  0.13115883  0.75199528  0.08842474     2.06300
Zr543      Zr  0.16883953  0.86562952  0.14115231     2.10000
Zr544      Zr  0.07392756  0.76323219  0.13064521     1.78800
O545        O  0.23331582  0.91988056  0.14957821    -0.93400
O546        O  0.01760934  0.70435725  0.11824922    -0.41200
O547        O  0.13613804  0.79639484  0.14587610    -0.77800
O548        O  0.11825215  0.74084424  0.12114226    -0.96500
O549        O  0.19396550  0.78613976  0.10324611    -0.89800
O550        O  0.21465014  0.84617446  0.13088100    -0.92700
C551        C  0.02394348  0.80531638  0.10954232     1.01100
C552        C  0.15020128  0.93032131  0.11591656     1.14000
C553        C  0.08272624  0.77828817  0.05585066     1.04800
O554        O  0.07612797  0.68623761  0.08305934    -0.94800
O555        O  0.14625562  0.70058590  0.09595055    -0.90600
O556        O  0.17229885  0.71406531  0.12502861    -0.83700
C557        C  0.16077572  0.69291181  0.11028463     1.11400
O558        O  0.24391812  0.91019310  0.07693465    -0.96800
Zr559      Zr  0.22507313  0.85490826  0.09798542     1.88900
O560        O  0.25266006  0.80249033  0.13324054    -0.73400
O561        O  0.16883091  0.75119010  0.06167523    -0.52700
O562        O  0.24740205  0.84211369  0.06854244    -0.97400
O563        O  0.28192286  0.91567810  0.10854226    -0.54600
O564        O  0.27313023  0.83672184  0.10623798    -0.74000
C565        C  0.27815638  0.81992196  0.12032997     0.98400
O566        O  0.19391429  0.74121217  0.16032777    -0.62800
O567        O  0.13873061  0.88458871  0.16561021    -0.57600
O568        O  0.17702312  0.78834594  0.16905532    -0.94300
O569        O  0.17352338  0.84394846  0.17240117    -0.92700
O570        O  0.05270989  0.77466608  0.16065188    -0.93000
O571        O  0.04966218  0.70725301  0.15165995    -0.91800
C572        C  0.17465016  0.81420163  0.17909970     1.17200
H573        H  0.09046007  0.84357393  0.13044803     0.33200
H574        H  0.10614665  0.71315532  0.12385355     0.44000
H575        H  0.23886455  0.85948286  0.13776808     0.37600
H576        H  0.16708810  0.82613307  0.06900287     0.34000
H577        H  0.99514187  0.70052432  0.12602492     0.25800
H578        H  0.15126980  0.72600638  0.05537601     0.31800
H579        H  0.27635841  0.85522157  0.06966879     0.37700
H580        H  0.02394309  0.75654802  0.16090169     0.32100
H581        H  0.15650822  0.91312964  0.16732862     0.31000
H582        H  0.24142231  0.91037918  0.16053376     0.32700
H583        H  0.29426445  0.90791567  0.11841114     0.31700
H584        H  0.07259052  0.70381727  0.15400027     0.35700
H585        H  0.17014511  0.71485054  0.16079351     0.28400
H586        H  0.10858179  0.88339525  0.06322488     0.32600
H587        H  0.27038465  0.91742372  0.07222797     0.35500
H588        H  0.11457837  0.88207570  0.16000506     0.28100
H589        H  0.21500784  0.73672339  0.15559238     0.40900
H590        H  0.05290528  0.68714589  0.08774891     0.31000
H591        H  0.01250750  0.71222352  0.10594554     0.38600
H592        H  0.27061078  0.92976295  0.11520554     0.30500
H593        H  0.16996638  0.77148142  0.05313390     0.30500
H594        H  0.14997521  0.88686826  0.06039032     0.30800
Zr595      Zr  0.89134629  0.72596308  0.89940476     2.17500
O596        O  0.88165312  0.76012601  0.92540936    -0.51600
O597        O  0.95760369  0.77864744  0.89319337    -0.74800
O598        O  0.92234035  0.72155465  0.92789023    -0.81500
O599        O  0.83743050  0.75804873  0.86528627    -0.83300
O600        O  0.91638272  0.66117195  0.92973672    -0.78900
O601        O  0.87186502  0.77457421  0.89233273    -0.90600
O602        O  0.98265152  0.75991307  0.86943857    -0.76500
O603        O  0.92401744  0.69024502  0.89251834    -0.86000
O604        O  0.90025481  0.73003439  0.86657213    -0.85700
O605        O  0.84930182  0.66029884  0.91061920    -0.72400
O606        O  0.82707940  0.69713747  0.88617625    -0.84600
Zr607      Zr  0.82493698  0.59815791  0.85674637     2.26400
Zr608      Zr  0.88133888  0.62400853  0.90230199     2.06300
Zr609      Zr  0.83588386  0.69950942  0.85325023     2.10000
Zr610      Zr  0.93284773  0.69410984  0.85988967     1.78800
O611        O  0.77051034  0.68769913  0.84547441    -0.93400
O612        O  0.98789329  0.68637465  0.86983992    -0.41200
O613        O  0.86868184  0.66380824  0.84660638    -0.77800
O614        O  0.89062620  0.62686816  0.86925618    -0.96500
O615        O  0.81665818  0.59491637  0.88954861    -0.89800
O616        O  0.79213308  0.63384899  0.86366431    -0.92700
C617        C  0.98506029  0.78480491  0.88167339     1.01100
C618        C  0.85219640  0.78020924  0.87957250     1.14000
C619        C  0.92829749  0.69588340  0.93601955     1.04800
O620        O  0.94093923  0.61954886  0.90371471    -0.94800
O621        O  0.86364469  0.55690339  0.89423621    -0.90600
O622        O  0.84025807  0.54711169  0.86471339    -0.83700
C623        C  0.85128894  0.53641466  0.87928593     1.11400
O624        O  0.77406451  0.66339986  0.92338428    -0.96800
Zr625      Zr  0.78547482  0.63174605  0.89683981     1.88900
O626        O  0.75562895  0.55015248  0.86227829    -0.73400
O627        O  0.85095675  0.58152221  0.92908610    -0.52700
O628        O  0.76532041  0.58744328  0.92344922    -0.97400
O629        O  0.73271469  0.64610418  0.89136759    -0.54600
O630        O  0.73232629  0.56978042  0.88644110    -0.74000
C631        C  0.72842431  0.54544064  0.87369471     0.98400
O632        O  0.80993215  0.55134768  0.83146417    -0.62800
O633        O  0.86698795  0.75115407  0.82996304    -0.57600
O634        O  0.82451016  0.61478158  0.82398838    -0.94300
O635        O  0.82955218  0.67450685  0.82175170    -0.92700
O636        O  0.94980416  0.73049377  0.83072263    -0.93000
O637        O  0.95462473  0.66552892  0.83589947    -0.91800
C638        C  0.82681085  0.64351876  0.81440194     1.17200
H639        H  0.91517204  0.75690533  0.86235331     0.33200
H640        H  0.90301095  0.61207025  0.86555784     0.44000
H641        H  0.76710969  0.62277747  0.85740913     0.37600
H642        H  0.84663959  0.66052333  0.92394262     0.34000
H643        H  0.01111023  0.70786550  0.86353928     0.25800
H644        H  0.87274843  0.58024289  0.93533612     0.31800
H645        H  0.73644118  0.57578760  0.92419935     0.37700
H646        H  0.97806510  0.73969955  0.82884636     0.32100
H647        H  0.84566805  0.75545653  0.82542760     0.31000
H648        H  0.77275237  0.69685991  0.83246918     0.32700
H649        H  0.70926327  0.62417534  0.89730063     0.31700
H650        H  0.93043365  0.64779057  0.82891439     0.35700
H651        H  0.83499581  0.55227612  0.82849783     0.28400
H652        H  0.90830690  0.77904548  0.92998903     0.32600
H653        H  0.74777407  0.64422407  0.92827045     0.35500
H654        H  0.88494078  0.77533817  0.83686816     0.28100
H655        H  0.79298358  0.52500166  0.83691957     0.40900
H656        H  0.94287652  0.60925997  0.89144107     0.31000
H657        H  0.99173540  0.69383745  0.88314152     0.38600
H658        H  0.72740186  0.64216906  0.87785974     0.30500
H659        H  0.84416055  0.59696598  0.93763083     0.30500
H660        H  0.86949159  0.74034124  0.93543291     0.30800
Zr661      Zr  0.73015579  0.87524478  0.09664802     2.17500
O662        O  0.75853781  0.85942327  0.07018879    -0.51600
O663        O  0.78453768  0.94002502  0.10232530    -0.74800
O664        O  0.72701003  0.90865396  0.06870930    -0.81500
O665        O  0.76472130  0.82378797  0.12989374    -0.83300
O666        O  0.66758916  0.90532613  0.06798795    -0.78900
O667        O  0.78159486  0.85993626  0.10329798    -0.90600
O668        O  0.76961132  0.96411691  0.12785601    -0.76500
O669        O  0.69777269  0.91043577  0.10520501    -0.86000
O670        O  0.73568416  0.88182203  0.12961010    -0.85700
O671        O  0.66393144  0.83620105  0.08586786    -0.72400
O672        O  0.70072240  0.81031701  0.10921913    -0.84600
Zr673      Zr  0.60442465  0.81022568  0.14049034     2.26400
Zr674      Zr  0.63094295  0.87048890  0.09578524     2.06300
Zr675      Zr  0.70417134  0.81712697  0.14231468     2.10000
Zr676      Zr  0.70305471  0.91657062  0.13798182     1.78800
O677        O  0.69057378  0.75008530  0.14677221    -0.93400
O678        O  0.69901823  0.97508057  0.13100328    -0.41200
O679        O  0.67092432  0.85162638  0.15056778    -0.77800
O680        O  0.63516212  0.87696688  0.12898485    -0.96500
O681        O  0.60005297  0.80464049  0.10751241    -0.89800
O682        O  0.63799996  0.77614147  0.13206706    -0.92700
C683        C  0.79291911  0.96630272  0.11475007     1.01100
C684        C  0.78764560  0.84059759  0.11599824     1.14000
C685        C  0.70175327  0.91606975  0.06114810     1.04800
O686        O  0.63232365  0.93309620  0.09599297    -0.94800
O687        O  0.56588677  0.85658848  0.10545369    -0.90600
O688        O  0.55411743  0.82740116  0.13370833    -0.83700
C689        C  0.54473345  0.84217996  0.12008139     1.11400
O690        O  0.66595756  0.76240664  0.07153263    -0.96800
Zr691      Zr  0.63465382  0.77173010  0.09884223     1.88900
O692        O  0.55567455  0.74090756  0.13479092    -0.73400
O693        O  0.58569067  0.84484657  0.06961957    -0.52700
O694        O  0.58940247  0.75280307  0.07269687    -0.97400
O695        O  0.64471852  0.71586373  0.10322230    -0.54600
O696        O  0.57298584  0.71899981  0.10936069    -0.74000
C697        C  0.54970315  0.71422345  0.12278174     0.98400
O698        O  0.56010947  0.79855627  0.16660994    -0.62800
O699        O  0.75508892  0.84101291  0.16617361    -0.57600
O700        O  0.61943780  0.80358398  0.17284903    -0.94300
O701        O  0.67937053  0.80809870  0.17409405    -0.92700
O702        O  0.74380438  0.93287640  0.16564573    -0.93000
O703        O  0.67584845  0.93457136  0.16411645    -0.91800
C704        C  0.64824374  0.80459704  0.18180865     1.17200
H705        H  0.76307884  0.89578937  0.13355788     0.33200
H706        H  0.62120846  0.88990558  0.13337379     0.44000
H707        H  0.62640639  0.75066060  0.13798351     0.37600
H708        H  0.66345562  0.83428891  0.07246586     0.34000
H709        H  0.72153044  0.99652141  0.13769388     0.25800
H710        H  0.58545442  0.86801309  0.06436566     0.31800
H711        H  0.57815906  0.72407682  0.07149429     0.37700
H712        H  0.75472119  0.96145036  0.16733979     0.32100
H713        H  0.76601885  0.82314510  0.16586038     0.31000
H714        H  0.70983639  0.75222527  0.15623727     0.32700
H715        H  0.62397500  0.69452362  0.09567796     0.31700
H716        H  0.65574921  0.90916369  0.16946423     0.35700
H717        H  0.56153509  0.82400362  0.16911238     0.28400
H718        H  0.77904726  0.88503259  0.06520206     0.32600
H719        H  0.64761896  0.73562407  0.06694540     0.35500
H720        H  0.77648518  0.86641146  0.16144108     0.28100
H721        H  0.53320643  0.78122080  0.16184934     0.40900
H722        H  0.62638052  0.93667246  0.10898269     0.31000
H723        H  0.70620385  0.98053070  0.11769763     0.38600
H724        H  0.63686318  0.70739362  0.11624425     0.30500
H725        H  0.59940844  0.83775226  0.06016875     0.30500
H726        H  0.73768172  0.84879513  0.06059696     0.30800
Zr727      Zr  0.85588670  0.11207632  0.90511695     2.17500
O728        O  0.90501670  0.12802913  0.92927882    -0.51600
O729        O  0.83952345  0.04433781  0.90080377    -0.74800
O730        O  0.82431954  0.08431610  0.93491524    -0.81500
O731        O  0.93651072  0.15719890  0.86837786    -0.83300
O732        O  0.76750117  0.08636804  0.93579516    -0.78900
O733        O  0.92185525  0.12680876  0.89651216    -0.90600
O734        O  0.79232693  0.01725554  0.87864166    -0.76500
O735        O  0.78685294  0.07989814  0.89991222    -0.86000
O736        O  0.84696524  0.09917214  0.87256113    -0.85700
O737        O  0.83522380  0.15673676  0.91595604    -0.72400
O738        O  0.89076297  0.17451075  0.88993065    -0.84600
Zr739      Zr  0.79233079  0.17548197  0.86254596     2.26400
Zr740      Zr  0.76610270  0.12483827  0.90959067     2.06300
Zr741      Zr  0.88043445  0.16159634  0.85737102     2.10000
Zr742      Zr  0.77791900  0.06728850  0.86757583     1.78800
O743        O  0.93720500  0.22376973  0.84833912    -0.93400
O744        O  0.71418471  0.01582675  0.87872964    -0.41200
O745        O  0.81134957  0.12947561  0.85222072    -0.77800
O746        O  0.75559155  0.11161157  0.87688444    -0.96500
O747        O  0.80094938  0.18792227  0.89500553    -0.89800
O748        O  0.86135654  0.20773401  0.86742782    -0.92700
C749        C  0.81574191  0.01544513  0.89053900     1.01100
C750        C  0.94520980  0.14361931  0.88274074     1.14000
C751        C  0.79156507  0.07638759  0.94255356     1.04800
O752        O  0.70031152  0.07058900  0.91593937    -0.94800
O753        O  0.71457867  0.13981385  0.90155056    -0.90600
O754        O  0.72874119  0.16388403  0.87224045    -0.83700
C755        C  0.70687258  0.15286791  0.88669810     1.11400
O756        O  0.91778275  0.23273557  0.92481617    -0.96800
Zr757      Zr  0.86981837  0.21877239  0.90022510     1.88900
O758        O  0.81386316  0.24508600  0.86617365    -0.73400
O759        O  0.76707814  0.16200034  0.93684203    -0.52700
O760        O  0.85265544  0.24383503  0.92748131    -0.97400
O761        O  0.93509369  0.27166895  0.89171966    -0.54600
O762        O  0.85894127  0.27063611  0.88933027    -0.74000
C763        C  0.83716268  0.27331294  0.87686326     0.98400
O764        O  0.75486705  0.18414314  0.83772303    -0.62800
O765        O  0.89468093  0.12563833  0.83390433    -0.57600
O766        O  0.80738039  0.17740844  0.82971112    -0.94300
O767        O  0.86267389  0.17319348  0.82653205    -0.92700
O768        O  0.79147942  0.04123452  0.83960962    -0.93000
O769        O  0.72986328  0.04760294  0.84260191    -0.91800
C770        C  0.83397172  0.17623274  0.81985081     1.17200
H771        H  0.85778349  0.08305099  0.86858707     0.33200
H772        H  0.72790812  0.09940750  0.87395210     0.44000
H773        H  0.87476598  0.23179913  0.86035932     0.37600
H774        H  0.83970320  0.16080164  0.92915610     0.34000
H775        H  0.70705940  0.99331196  0.87033576     0.25800
H776        H  0.76846417  0.18606192  0.93175407     0.31800
H777        H  0.86947292  0.27272532  0.92669983     0.37700
H778        H  0.81948599  0.05969088  0.83682479     0.32100
H779        H  0.92098108  0.14480924  0.82902686     0.31000
H780        H  0.95402663  0.21636319  0.84116005     0.32700
H781        H  0.93721907  0.29544501  0.89755662     0.31700
H782        H  0.72343364  0.06891318  0.84189163     0.35700
H783        H  0.72913203  0.15957767  0.83728651     0.28400
H784        H  0.89805099  0.10277532  0.93535711     0.32600
H785        H  0.92753834  0.26031898  0.92853288     0.35500
H786        H  0.89890585  0.10631668  0.84084919     0.28100
H787        H  0.74898432  0.20450759  0.84214371     0.40900
H788        H  0.68925969  0.05967534  0.90355704     0.31000
H789        H  0.71973566  0.00750966  0.89081158     0.38600
H790        H  0.93377103  0.27565851  0.87821046     0.30500
H791        H  0.74024985  0.14679429  0.94208527     0.30500
H792        H  0.89958181  0.14311494  0.93866157     0.30800
C793        C  0.71305712  0.93804524  0.04321014    -0.12200
C794        C  0.69989481  0.96425324  0.03791921     0.03300
C795        C  0.71321349  0.98553650  0.02129323    -0.12700
C796        C  0.73860466  0.98056400  0.00932620     0.18100
C797        C  0.75066171  0.95351780  0.01420692    -0.09800
C798        C  0.73837966  0.93304623  0.03107948    -0.02700
H799        H  0.70372631  0.00625846  0.01766526     0.04700
C800        C  0.75238082  0.00422454  0.99197866     0.20100
H801        H  0.74819074  0.91251922  0.03457005     0.09800
C802        C  0.79228517  0.03243404  0.98993427    -0.16100
C803        C  0.80594722  0.05644854  0.97409115     0.02800
C804        C  0.77934167  0.05249077  0.95986635    -0.11400
C805        C  0.73942569  0.02423573  0.96204100    -0.01500
C806        C  0.72592046  0.00024164  0.97781235    -0.06600
H807        H  0.81280961  0.03623834  0.00089584     0.05800
H808        H  0.71854536  0.02030983  0.95124147     0.09200
Br809      Br  0.78211110  0.94193062  0.99783906    -0.06300
Br810      Br  0.66503561  0.97386550  0.05284417    -0.03300
Br811      Br  0.86054422  0.09567972  0.97351262    -0.00400
Br812      Br  0.67117909  0.96151722  0.97903202    -0.04800
C813        C  0.84497209  0.81368607  0.88206420    -0.12200
C814        C  0.83785704  0.83268386  0.86703169     0.03300
C815        C  0.83179771  0.86426347  0.87043913    -0.12700
C816        C  0.83183213  0.87720690  0.88855973     0.18100
C817        C  0.83719703  0.85751855  0.90360034    -0.09800
C818        C  0.84417822  0.82647929  0.90027484    -0.02700
H819        H  0.82729151  0.87912601  0.85881103     0.04700
C820        C  0.82651399  0.91154684  0.89119507     0.20100
H821        H  0.84826094  0.81178943  0.91208898     0.09800
C822        C  0.79044806  0.90844115  0.88651000    -0.16100
C823        C  0.78551592  0.94132665  0.88682007     0.02800
C824        C  0.81734356  0.97848569  0.89185813    -0.11400
C825        C  0.85298320  0.98094515  0.89720014    -0.01500
C826        C  0.85792342  0.94814148  0.89667269    -0.06600
H827        H  0.76614970  0.88029917  0.88227350     0.05800
H828        H  0.87785818  0.00894090  0.90099566     0.09200
Br829      Br  0.83376305  0.87097179  0.92889893    -0.06300
Br830      Br  0.83677687  0.81861649  0.84142547    -0.03300
Br831      Br  0.73430270  0.93270721  0.88056907    -0.00400
Br832      Br  0.90910659  0.95553675  0.90196090    -0.04800
C833        C  0.84883059  0.49753409  0.87878608    -0.12200
C834        C  0.85995794  0.48437783  0.86286386     0.03300
C835        C  0.85513564  0.44666357  0.86249663    -0.12700
C836        C  0.83964639  0.42141936  0.87781752     0.18100
C837        C  0.82955425  0.43479960  0.89395060    -0.09800
C838        C  0.83399891  0.47248578  0.89428979    -0.02700
H839        H  0.86419940  0.43715557  0.85025745     0.04700
C840        C  0.83793682  0.38289743  0.87709519     0.20100
H841        H  0.82564732  0.48218091  0.90669360     0.09800
C842        C  0.87335790  0.38246085  0.87591667    -0.16100
C843        C  0.87361298  0.34709513  0.87496816     0.02800
C844        C  0.83793333  0.31113772  0.87537290    -0.11400
C845        C  0.80236498  0.31149849  0.87581942    -0.01500
C846        C  0.80210973  0.34699671  0.87658524    -0.06600
H847        H  0.90102916  0.40989021  0.87568449     0.05800
H848        H  0.77469184  0.28405961  0.87597065     0.09200
Br849      Br  0.81165254  0.40361184  0.91615051    -0.06300
Br850      Br  0.88491821  0.51750224  0.84174930    -0.03300
Br851      Br  0.92336589  0.34968815  0.87197944    -0.00400
Br852      Br  0.75224782  0.34487473  0.87632714    -0.04800
C853        C  0.05974990  0.76758690  0.03838614    -0.12200
C854        C  0.06795420  0.79482841  0.02386400     0.03300
C855        C  0.04538375  0.78305174  0.00759940    -0.12700
C856        C  0.01416107  0.74451597  0.00555633     0.18100
C857        C  0.00575568  0.71737806  0.02007507    -0.09800
C858        C  0.02855281  0.72897470  0.03625226    -0.02700
H859        H  0.05258384  0.80391326  0.99635361     0.04700
C860        C  0.99203621  0.73248817  0.98783665     0.20100
H861        H  0.02157164  0.70779859  0.04733090     0.09800
C862        C  0.99413832  0.70421885  0.97683052    -0.16100
C863        C  0.97334138  0.69132552  0.96013756     0.02800
C864        C  0.95019847  0.70745723  0.95390261    -0.11400
C865        C  0.94864585  0.73627544  0.96491526    -0.01500
C866        C  0.96916271  0.74872226  0.98173060    -0.06600
H867        H  0.01219624  0.69205423  0.98130279     0.05800
H868        H  0.93098350  0.74895230  0.96055825     0.09200
Br869      Br  0.96290747  0.66435667  0.01859187    -0.06300
Br870      Br  0.11101765  0.84765923  0.02479534    -0.03300
Br871      Br  0.97977162  0.65296276  0.94648007    -0.00400
Br872      Br  0.96391202  0.78693540  0.99612911    -0.04800
C873        C  0.98818886  0.80865101  0.10977139    -0.12200
C874        C  0.97318879  0.81383947  0.12669856     0.03300
C875        C  0.94045310  0.81880815  0.12667289    -0.12700
C876        C  0.92153580  0.81788327  0.11004757     0.18100
C877        C  0.93589806  0.81207520  0.09310883    -0.09800
C878        C  0.96942193  0.80804561  0.09302846    -0.02700
H879        H  0.92962967  0.82347084  0.13973453     0.04700
C880        C  0.88688161  0.82309893  0.11089357     0.20100
H881        H  0.98047063  0.80381694  0.07993874     0.09800
C882        C  0.89022396  0.85864993  0.10500592    -0.16100
C883        C  0.85865336  0.86549883  0.10686061     0.02800
C884        C  0.82262475  0.83591774  0.11432838    -0.11400
C885        C  0.81971851  0.80057504  0.12040538    -0.01500
C886        C  0.85148607  0.79416180  0.11888067    -0.06600
H887        H  0.91790037  0.88158043  0.09946002     0.05800
H888        H  0.79247002  0.77761110  0.12629204     0.09200
Br889      Br  0.90960815  0.80788308  0.07002419    -0.06300
Br890      Br  0.99730096  0.81663590  0.15028515    -0.03300
Br891      Br  0.86788859  0.91698804  0.10067956    -0.00400
Br892      Br  0.84510993  0.74531280  0.12782911    -0.04800
C893        C  0.31616794  0.82130456  0.12161366    -0.12200
C894        C  0.33155509  0.81112756  0.10624615     0.03300
C895        C  0.36906789  0.81562260  0.10725474    -0.12700
C896        C  0.39179177  0.83026171  0.12338358     0.18100
C897        C  0.37648229  0.84045087  0.13876432    -0.09800
C898        C  0.33865609  0.83547481  0.13786408    -0.02700
H899        H  0.38059257  0.80757956  0.09540434     0.04700
C900        C  0.43146097  0.83483910  0.12361947     0.20100
H901        H  0.32733201  0.84399006  0.14962375     0.09800
C902        C  0.46087340  0.86361226  0.11237658    -0.16100
C903        C  0.49803970  0.86708274  0.11107665     0.02800
C904        C  0.50646533  0.84139602  0.12135937    -0.11400
C905        C  0.47684463  0.81310099  0.13292329    -0.01500
C906        C  0.43951541  0.80923454  0.13384574    -0.06600
H907        H  0.45466355  0.88324472  0.10437361     0.05800
H908        H  0.48223637  0.79293731  0.14089666     0.09200
Br909      Br  0.40688271  0.86316807  0.16082006    -0.06300
Br910      Br  0.30200900  0.78958596  0.08379781    -0.03300
Br911      Br  0.53544912  0.90815164  0.09525406    -0.00400
Br912      Br  0.39961300  0.76681830  0.14818686    -0.04800
C913        C  0.69005292  0.50912620  0.87259161    -0.12200
C914        C  0.65479546  0.51033572  0.87250231     0.03300
C915        C  0.61879490  0.47558830  0.87372770    -0.12700
C916        C  0.61714801  0.43931610  0.87525755     0.18100
C917        C  0.65221044  0.43777127  0.87480017    -0.09800
C918        C  0.68839260  0.47263332  0.87339408    -0.02700
H919        H  0.59187081  0.47687185  0.87371173     0.04700
C920        C  0.57827496  0.40363729  0.87687254     0.20100
H921        H  0.71530552  0.47133697  0.87354149     0.09800
C922        C  0.55265315  0.39238611  0.86166906    -0.16100
C923        C  0.51492209  0.35981223  0.86280585     0.02800
C924        C  0.50260725  0.33732420  0.87927777    -0.11400
C925        C  0.52779712  0.34944118  0.89472390    -0.01500
C926        C  0.56527391  0.38261970  0.89368980    -0.06600
H927        H  0.56188581  0.40945620  0.84894987     0.05800
H928        H  0.51845783  0.33284146  0.90757201     0.09200
Br929      Br  0.65196903  0.38887760  0.87606420    -0.06300
Br930      Br  0.65393639  0.55847872  0.87018268    -0.03300
Br931      Br  0.48046766  0.34963619  0.84205429    -0.00400
Br932      Br  0.59687158  0.39919320  0.91576935    -0.04800
C933        C  0.02168556  0.82338668  0.88272496    -0.12200
C934        C  0.04276319  0.84400544  0.86670432     0.03300
C935        C  0.07597207  0.88128126  0.86848086    -0.12700
C936        C  0.08963054  0.89830146  0.88601311     0.18100
C937        C  0.06920970  0.87745781  0.90202095    -0.09800
C938        C  0.03527900  0.84067852  0.90026911    -0.02700
H939        H  0.09130141  0.89720541  0.85606287     0.04700
C940        C  0.12487866  0.93798881  0.88711299     0.20100
H941        H  0.01983895  0.82515087  0.91274321     0.09800
C942        C  0.12115561  0.96957810  0.89370146    -0.16100
C943        C  0.15306617  0.00804922  0.89327877     0.02800
C944        C  0.18968903  0.01541764  0.88611710    -0.11400
C945        C  0.19343639  0.98350264  0.87995699    -0.01500
C946        C  0.16157256  0.94518204  0.88042297    -0.06600
H947        H  0.09289751  0.96441705  0.89863868     0.05800
H948        H  0.22134147  0.98837566  0.87464386     0.09200
Br949      Br  0.08771842  0.89686035  0.92657389    -0.06300
Br950      Br  0.02703287  0.82419343  0.84194111    -0.03300
Br951      Br  0.14350150  0.04927517  0.90108833    -0.00400
Br952      Br  0.16974816  0.90353088  0.87193023    -0.04800
C953        C  0.67058585  0.15554729  0.88536759    -0.12200
C954        C  0.65215399  0.16159445  0.90088806     0.03300
C955        C  0.61957840  0.16653641  0.89819970    -0.12700
C956        C  0.60493627  0.16564900  0.88030482     0.18100
C957        C  0.62335126  0.16007370  0.86485331    -0.09800
C958        C  0.65548031  0.15468870  0.86746957    -0.02700
H959        H  0.60533838  0.17084191  0.91014767     0.04700
C960        C  0.56855339  0.16738730  0.87817784     0.20100
H961        H  0.66879615  0.14991978  0.85529908     0.09800
C962        C  0.56989148  0.20125326  0.87103654    -0.16100
C963        C  0.53555817  0.20365295  0.86954364     0.02800
C964        C  0.49922932  0.17163907  0.87536906    -0.11400
C965        C  0.49821024  0.13748719  0.88199325    -0.01500
C966        C  0.53234398  0.13519418  0.88341957    -0.06600
H967        H  0.59782511  0.22610240  0.86694000     0.05800
H968        H  0.47064581  0.11241544  0.88631543     0.09200
Br969      Br  0.60539424  0.15905492  0.83992751    -0.06300
Br970      Br  0.67040965  0.16504690  0.92594195    -0.03300
Br971      Br  0.54088578  0.25218969  0.86070078    -0.00400
Br972      Br  0.52810726  0.08737550  0.89262626    -0.04800
C973        C  0.17894375  0.17734284  0.88349535    -0.12200
C974        C  0.15577039  0.16609976  0.86724872     0.03300
C975        C  0.11825260  0.16177627  0.86765780    -0.12700
C976        C  0.10342654  0.16879958  0.88403655     0.18100
C977        C  0.12668504  0.18049912  0.90020138    -0.09800
C978        C  0.16406536  0.18436181  0.89987943    -0.02700
H979        H  0.10035852  0.15249839  0.85520359     0.04700
C980        C  0.06330893  0.16298655  0.88403037     0.20100
H981        H  0.18182857  0.19351731  0.91234772     0.09800
C982        C  0.03325247  0.13046312  0.89326522    -0.16100
C983        C  0.99467612  0.12353022  0.89324573     0.02800
C984        C  0.98550367  0.14922457  0.88349883    -0.11400
C985        C  0.01600582  0.18184025  0.87425126    -0.01500
C986        C  0.05460911  0.18900647  0.87461778    -0.06600
H987        H  0.03988534  0.11026319  0.90047995     0.05800
H988        H  0.01002492  0.20242874  0.86698027     0.09200
Br989      Br  0.10908045  0.19293665  0.92272391    -0.06300
Br990      Br  0.17284284  0.15388009  0.84447345    -0.03300
Br991      Br  0.95631576  0.07764962  0.90622818    -0.00400
Br992      Br  0.09495612  0.23565398  0.86286449    -0.04800
C993        C  0.83253663  0.00098132  0.11385081    -0.12200
C994        C  0.85678507  0.01510325  0.12968961     0.03300
C995        C  0.89455845  0.04747418  0.12811794    -0.12700
C996        C  0.90878163  0.06619254  0.11095485     0.18100
C997        C  0.88524332  0.05121713  0.09497777    -0.09800
C998        C  0.84743873  0.01875646  0.09651960    -0.02700
H999        H  0.91300875  0.05820611  0.14036305     0.04700
C1000       C  0.94800310  0.10163092  0.11021016     0.20100
H1001       H  0.82940259  0.00762608  0.08416411     0.09800
C1002       C  0.97862573  0.10054194  0.10075636    -0.16100
C1003       C  0.01657726  0.13319429  0.10055105     0.02800
C1004       C  0.02443139  0.16777470  0.11019154    -0.11400
C1005       C  0.99321799  0.16859754  0.11942258    -0.01500
C1006       C  0.95544656  0.13608459  0.11949409    -0.06600
H1007       H  0.97304370  0.07387973  0.09372496     0.05800
H1008       H  0.99805632  0.19478629  0.12666818     0.09200
Br1009     Br  0.90288571  0.07480830  0.07094139    -0.06300
Br1010     Br  0.84120363  0.98983764  0.15348752    -0.03300
Br1011     Br  0.05584729  0.12714501  0.08755514    -0.00400
Br1012     Br  0.91484747  0.14044950  0.13227000    -0.04800
C1013       C  0.34002266  0.48844048  0.11657541    -0.12200
C1014       C  0.36175040  0.50980247  0.10078610     0.03300
C1015       C  0.39630653  0.54580855  0.10308826    -0.12700
C1016       C  0.41014902  0.56110855  0.12084973     0.18100
C1017       C  0.38865675  0.54012093  0.13657357    -0.09800
C1018       C  0.35391685  0.50430571  0.13435962    -0.02700
H1019       H  0.41241439  0.56221522  0.09091106     0.04700
C1020       C  0.44646285  0.59955785  0.12261135     0.20100
H1021       H  0.33802404  0.48852067  0.14669290     0.09800
C1022       C  0.44412447  0.63167968  0.12949580    -0.16100
C1023       C  0.47738255  0.66914896  0.13022408     0.02800
C1024       C  0.51407126  0.67487420  0.12413710    -0.11400
C1025       C  0.51630102  0.64226308  0.11760122    -0.01500
C1026       C  0.48296539  0.60500541  0.11668647    -0.06600
H1027       H  0.41593475  0.62776756  0.13377564     0.05800
H1028       H  0.54409985  0.64582967  0.11287274     0.09200
Br1029     Br  0.40641377  0.55845706  0.16135947    -0.06300
Br1030     Br  0.34543291  0.49317408  0.07564978    -0.03300
Br1031     Br  0.46948934  0.71136494  0.13789195    -0.00400
Br1032     Br  0.48876594  0.56253772  0.10718691    -0.04800
C1033       C  0.17290643  0.48068316  0.11565136    -0.12200
C1034       C  0.16703484  0.49751883  0.13178951     0.03300
C1035       C  0.16464955  0.53182244  0.13034985    -0.12700
C1036       C  0.16789249  0.54969658  0.11303685     0.18100
C1037       C  0.17473429  0.53354490  0.09701377    -0.09800
C1038       C  0.17693210  0.49926178  0.09839038    -0.02700
H1039       H  0.15972327  0.54436929  0.14276328     0.04700
C1040       C  0.16558333  0.58602993  0.11202910     0.20100
H1041       H  0.18204306  0.48714943  0.08586469     0.09800
C1042       C  0.19762871  0.62120963  0.11821110    -0.16100
C1043       C  0.19709737  0.65644968  0.11723948     0.02800
C1044       C  0.16371033  0.65680554  0.11014992    -0.11400
C1045       C  0.13183889  0.62154186  0.10367594    -0.01500
C1046       C  0.13241322  0.58624898  0.10473125    -0.06600
H1047       H  0.22344067  0.62130819  0.12359308     0.05800
H1048       H  0.10591023  0.62121720  0.09831140     0.09200
Br1049     Br  0.18230022  0.55793637  0.07306451    -0.06300
Br1050     Br  0.15942395  0.47377778  0.15589376    -0.03300
Br1051     Br  0.24396834  0.70338162  0.12462256    -0.00400
Br1052     Br  0.08664783  0.53884041  0.09686990    -0.04800
C1053       C  0.18928620  0.16526336  0.11011670    -0.12200
C1054       C  0.21843059  0.15803984  0.11760762     0.03300
C1055       C  0.21240749  0.11974867  0.11772447    -0.12700
C1056       C  0.17796181  0.08841036  0.11038063     0.18100
C1057       C  0.14952289  0.09557447  0.10248018    -0.09800
C1058       C  0.15543182  0.13359822  0.10228638    -0.02700
H1059       H  0.23459123  0.11431486  0.12366721     0.04700
C1060       C  0.17126386  0.04810602  0.11165589     0.20100
H1061       H  0.13271601  0.13810801  0.09638828     0.09800
C1062       C  0.15449891  0.02637795  0.12789334    -0.16100
C1063       C  0.14612767  0.98748209  0.12935083     0.02800
C1064       C  0.15578441  0.97023065  0.11460213    -0.11400
C1065       C  0.17169374  0.99180302  0.09817195    -0.01500
C1066       C  0.17915625  0.03036757  0.09656658    -0.06600
H1067       H  0.14690555  0.03942285  0.13926520     0.05800
H1068       H  0.17864548  0.97871345  0.08658800     0.09200
Br1069     Br  0.10147829  0.05399416  0.09237363    -0.06300
Br1070     Br  0.26751769  0.19870452  0.12730675    -0.03300
Br1071     Br  0.11771859  0.95816093  0.15082962    -0.00400
Br1072     Br  0.19945483  0.05751693  0.07347619    -0.04800
C1073       C  0.24152415  0.28117266  0.04142954    -0.12200
C1074       C  0.24284818  0.24607990  0.03973803     0.03300
C1075       C  0.25560839  0.23772927  0.02306952    -0.12700
C1076       C  0.26726685  0.26388966  0.00801728     0.18100
C1077       C  0.26612435  0.29892355  0.00972882    -0.09800
C1078       C  0.25363429  0.30744488  0.02638297    -0.02700
H1079       H  0.25641576  0.21068536  0.02181237     0.04700
C1080       C  0.27809970  0.25289662  0.99027562     0.20100
H1081       H  0.25257032  0.33438492  0.02744968     0.09800
C1082       C  0.24817660  0.22499742  0.97904399    -0.16100
C1083       C  0.25660192  0.21355647  0.96205152     0.02800
C1084       C  0.29617660  0.22989714  0.95603562    -0.11400
C1085       C  0.32612701  0.25812485  0.96749463    -0.01500
C1086       C  0.31735659  0.26972788  0.98440546    -0.06600
H1087       H  0.21785399  0.21235884  0.98346213     0.05800
H1088       H  0.35665152  0.27117214  0.96339223     0.09200
Br1089     Br  0.27982726  0.33519299  0.98945576    -0.06300
Br1090     Br  0.22968010  0.20957826  0.05992220    -0.03300
Br1091     Br  0.21181111  0.17692511  0.94784156    -0.00400
Br1092     Br  0.35976425  0.30844925  0.99912539    -0.04800
C1093       C  0.81521730  0.15567825  0.70103384    -0.12200
C1094       C  0.79677463  0.17394551  0.71032722     0.03300
C1095       C  0.80152535  0.18027978  0.72953967    -0.12700
C1096       C  0.82365596  0.16802018  0.73989887     0.18100
C1097       C  0.84001098  0.14773478  0.73092349    -0.09800
C1098       C  0.83612045  0.14215032  0.71169580    -0.02700
H1099       H  0.78743266  0.19441753  0.73650933     0.04700
C1100       C  0.82642724  0.17349559  0.76027767     0.20100
H1101       H  0.85013466  0.12760289  0.70505320     0.09800
C1102       C  0.79247637  0.15188851  0.77097159    -0.16100
C1103       C  0.79412511  0.15325234  0.79036961     0.02800
C1104       C  0.83044417  0.17679249  0.79942783    -0.11400
C1105       C  0.86422371  0.19947765  0.78866668    -0.01500
C1106       C  0.86236383  0.19834978  0.76922291    -0.06600
H1107       H  0.76474588  0.13273593  0.76417083     0.11800
H1108       H  0.89216990  0.21804573  0.79541191     0.09200
Br1109     Br  0.86650640  0.12560697  0.74441111    -0.06300
Br1110     Br  0.76235935  0.18837887  0.69816368    -0.03300
Br1111     Br  0.74637260  0.11923129  0.80347960    -0.00400
Br1112     Br  0.90942126  0.23146804  0.75548809    -0.04800
C1113       C  0.94890568  0.21360518  0.54162401    -0.12200
C1114       C  0.97517281  0.25320193  0.53677760     0.03300
C1115       C  0.99532108  0.26211079  0.51985385    -0.12700
C1116       C  0.99006717  0.23239804  0.50748766     0.18100
C1117       C  0.96485113  0.19292808  0.51242735    -0.09800
C1118       C  0.94460328  0.18383149  0.52937060    -0.02700
H1119       H  0.01546838  0.29251621  0.51632339     0.04700
C1120       C  0.01183681  0.24348249  0.48969273     0.20100
H1121       H  0.92474281  0.15330929  0.53278570     0.09800
C1122       C  0.04184317  0.23464309  0.48678241    -0.16100
C1123       C  0.06434287  0.24643358  0.47049384     0.02800
C1124       C  0.05702421  0.26772283  0.45676539    -0.11400
C1125       C  0.02706520  0.27670523  0.45981969    -0.01500
C1126       C  0.00444412  0.26463375  0.47603654    -0.06600
H1127       H  0.04820804  0.21905381  0.49740251     0.05800
H1128       H  0.02070707  0.29262263  0.44937379     0.09200
Br1129     Br  0.95589920  0.15060421  0.49615616    -0.06300
Br1130     Br  0.98714807  0.29666888  0.55287737    -0.03300
Br1131     Br  0.10628352  0.23502263  0.46864087    -0.00400
Br1132     Br  0.96289064  0.27655394  0.47860589    -0.04800
C1133       C  0.18164630  0.34821756  0.29600504    -0.12200
C1134       C  0.20967551  0.38144553  0.28609541     0.03300
C1135       C  0.20690411  0.38266242  0.26666914    -0.12700
C1136       C  0.17563196  0.35177492  0.25701360     0.18100
C1137       C  0.14707550  0.31920648  0.26708365    -0.09800
C1138       C  0.15071290  0.31735622  0.28626827    -0.02700
H1139       H  0.22933181  0.40761695  0.25906805     0.04700
C1140       C  0.17411402  0.35210633  0.23642118     0.20100
H1141       H  0.12832527  0.29208984  0.29373416     0.09800
C1142       C  0.17371223  0.32096736  0.22678160    -0.16100
C1143       C  0.16818200  0.31720170  0.20760963     0.02800
C1144       C  0.16533756  0.34629783  0.19740084    -0.11400
C1145       C  0.16761289  0.37860772  0.20686521    -0.01500
C1146       C  0.17105679  0.38123789  0.22631325    -0.06600
H1147       H  0.17659477  0.29869635  0.23435229     0.05800
H1148       H  0.16566680  0.40126290  0.19916255     0.09200
Br1149     Br  0.10115878  0.27729059  0.25550477    -0.06300
Br1150     Br  0.25289815  0.42497589  0.29828532    -0.03300
Br1151     Br  0.16573598  0.27192889  0.19625815    -0.00400
Br1152     Br  0.16882870  0.42351984  0.23843153    -0.04800
C1153       C  0.36550428  0.15730925  0.79718905    -0.12200
C1154       C  0.40148460  0.17248199  0.78744366     0.03300
C1155       C  0.40223131  0.17620552  0.76798894    -0.12700
C1156       C  0.36754816  0.16468962  0.75791301     0.18100
C1157       C  0.33144685  0.14719892  0.76748967    -0.09800
C1158       C  0.33067374  0.14384674  0.78688446    -0.02700
H1159       H  0.43003381  0.18842297  0.76069642     0.04700
C1160       C  0.36927250  0.17061855  0.73743808     0.20100
H1161       H  0.30264477  0.13161285  0.79397527     0.09800
C1162       C  0.37717278  0.14675339  0.72586287    -0.16100
C1163       C  0.37669391  0.14999153  0.70646428     0.02800
C1164       C  0.36788933  0.17739298  0.69823624    -0.11400
C1165       C  0.36063229  0.20173423  0.70986838    -0.01500
C1166       C  0.36190319  0.19895423  0.72929609    -0.06600
H1167       H  0.38291648  0.12490659  0.73195369     0.05800
H1168       H  0.35440274  0.22328209  0.70382675     0.09200
Br1169     Br  0.28230899  0.12710269  0.75464354    -0.06300
Br1170     Br  0.45004445  0.18635861  0.79976453    -0.03300
Br1171     Br  0.38566381  0.11424530  0.69200892    -0.00400
Br1172     Br  0.35445612  0.23509607  0.74424216    -0.04800
C1173       C  0.51121858  0.16230519  0.61229079    -0.12200
C1174       C  0.54410473  0.19681732  0.61904337     0.03300
C1175       C  0.58006401  0.19823319  0.62139300    -0.12700
C1176       C  0.58410524  0.16588102  0.61685264     0.18100
C1177       C  0.55182309  0.13185869  0.60953625    -0.09800
C1178       C  0.51566609  0.13027575  0.60724760    -0.02700
H1179       H  0.60514481  0.22485858  0.62653753     0.04700
C1180       C  0.62278642  0.16884772  0.61891610     0.20100
H1181       H  0.49075536  0.10363440  0.60201282     0.09800
C1182       C  0.63321128  0.15895850  0.63590483    -0.16100
C1183       C  0.66890594  0.15927940  0.63774112     0.02800
C1184       C  0.69436285  0.16939953  0.62234020    -0.11400
C1185       C  0.68424625  0.18045369  0.60558760    -0.01500
C1186       C  0.64896034  0.18053980  0.60383731    -0.06600
H1187       H  0.61312169  0.15007391  0.64758360     0.05800
H1188       H  0.70375563  0.18862069  0.59369679     0.09200
Br1189     Br  0.55590349  0.08685285  0.60279666    -0.06300
Br1190     Br  0.54244530  0.24382781  0.62410703    -0.03300
Br1191     Br  0.67998877  0.14276071  0.66093528    -0.00400
Br1192     Br  0.63726196  0.19603094  0.58048653    -0.04800
C1193       C  0.18698004  0.14916459  0.61221581    -0.12200
C1194       C  0.15021728  0.11516553  0.60916523     0.03300
C1195       C  0.11624167  0.11812666  0.60801078    -0.12700
C1196       C  0.11839373  0.15465797  0.60952788     0.18100
C1197       C  0.15509703  0.18868978  0.61212106    -0.09800
C1198       C  0.18901458  0.18572670  0.61366806    -0.02700
H1199       H  0.08796979  0.09180696  0.60618753     0.04700
C1200       C  0.08185487  0.15652548  0.60972481     0.20100
H1201       H  0.21714441  0.21211136  0.61569393     0.09800
C1202       C  0.06567612  0.15756180  0.62690770    -0.16100
C1203       C  0.03157446  0.16018991  0.62785879     0.02800
C1204       C  0.01339727  0.16248523  0.61133403    -0.11400
C1205       C  0.02909627  0.16032005  0.59409896    -0.01500
C1206       C  0.06310094  0.15731853  0.59321435    -0.06600
H1207       H  0.07955907  0.15602572  0.63965300     0.05800
H1208       H  0.01521694  0.16153382  0.58129281     0.09200
Br1209     Br  0.16007954  0.23972819  0.61323081    -0.06300
Br1210     Br  0.14443230  0.06376550  0.60758223    -0.03300
Br1211     Br  0.00981650  0.15747625  0.65209583    -0.00400
Br1212     Br  0.08332580  0.15499055  0.56927630    -0.04800
C1213       C  0.22767438  0.93309769  0.45775030    -0.12200
C1214       C  0.20180499  0.92499212  0.47290294     0.03300
C1215       C  0.21529285  0.94720523  0.48923771    -0.12700
C1216       C  0.25430162  0.97779247  0.49084866     0.18100
C1217       C  0.28027657  0.98568905  0.47585412    -0.09800
C1218       C  0.26691838  0.96339972  0.45955214    -0.02700
H1219       H  0.19525917  0.94048691  0.50081945     0.04700
C1220       C  0.26722329  0.00141273  0.50815834     0.20100
H1221       H  0.28727110  0.97009261  0.44811251     0.09800
C1222       C  0.29485750  0.99937367  0.51974665    -0.16100
C1223       C  0.30814736  0.02184359  0.53602189     0.02800
C1224       C  0.29419075  0.04762980  0.54083255    -0.11400
C1225       C  0.26564187  0.04866701  0.52938571    -0.01500
C1226       C  0.25210023  0.02582267  0.51326858    -0.06600
H1227       H  0.30584858  0.97983461  0.51618378     0.05800
H1228       H  0.25403821  0.06773665  0.53284348     0.09200
Br1229     Br  0.33389525  0.02747762  0.47674019    -0.06300
Br1230     Br  0.14869709  0.88236476  0.47281512    -0.03300
Br1231     Br  0.34285321  0.01333713  0.55160770    -0.00400
Br1232     Br  0.21392620  0.03002251  0.49829017    -0.04800
C1233       C  0.17601343  0.99650946  0.38178335    -0.12200
C1234       C  0.16445709  0.00650234  0.36501207     0.03300
C1235       C  0.15930544  0.03914299  0.36438669    -0.12700
C1236       C  0.16580777  0.06229938  0.38021796     0.18100
C1237       C  0.17795592  0.05279134  0.39686215    -0.09800
C1238       C  0.18252501  0.01975652  0.39762114    -0.02700
H1239       H  0.14989951  0.04636292  0.35154821     0.04700
C1240       C  0.15965833  0.09624655  0.37911104     0.20100
H1241       H  0.19173979  0.01252713  0.41051233     0.09800
C1242       C  0.12557693  0.09346530  0.38680594    -0.16100
C1243       C  0.11911878  0.12537151  0.38619033     0.02800
C1244       C  0.14721032  0.16083925  0.37762547    -0.11400
C1245       C  0.18092779  0.16303181  0.36962744    -0.01500
C1246       C  0.18739758  0.13124258  0.37043974    -0.06600
H1247       H  0.10395392  0.06633107  0.39333709     0.05800
H1248       H  0.20303441  0.19003559  0.36319147     0.09200
Br1249     Br  0.18997669  0.08503658  0.41858474    -0.06300
Br1250     Br  0.15291668  0.97535740  0.34287127    -0.03300
Br1251     Br  0.07070098  0.11779820  0.39658074    -0.00400
Br1252     Br  0.23546815  0.13752257  0.36040367    -0.04800
C1253       C  0.15050671  0.48187673  0.38257759    -0.12200
C1254       C  0.13963233  0.49769810  0.39765963     0.03300
C1255       C  0.14088230  0.53376673  0.39560987    -0.12700
C1256       C  0.15337233  0.55503171  0.37894063     0.18100
C1257       C  0.16490708  0.53998262  0.36407874    -0.09800
C1258       C  0.16299353  0.50376130  0.36588671    -0.02700
H1259       H  0.13271959  0.54573121  0.40723690     0.04700
C1260       C  0.15592742  0.59371540  0.37762806     0.20100
H1261       H  0.17158680  0.49288501  0.35399780     0.09800
C1262       C  0.19307991  0.62766012  0.37700664    -0.16100
C1263       C  0.19678321  0.66489114  0.37656488     0.02800
C1264       C  0.16283187  0.66845364  0.37698457    -0.11400
C1265       C  0.12566271  0.63448453  0.37742575    -0.01500
C1266       C  0.12199707  0.59726497  0.37755824    -0.06600
H1267       H  0.21931340  0.62513933  0.37720849     0.05800
H1268       H  0.09939441  0.63695374  0.37769242     0.09200
Br1269     Br  0.18322422  0.56765323  0.34092405    -0.06300
Br1270     Br  0.12444720  0.47339930  0.42170722    -0.03300
Br1271     Br  0.24882257  0.70976187  0.37694104    -0.00400
Br1272     Br  0.07017180  0.55224076  0.37726015    -0.04800
C1273       C  0.16021287  0.79229478  0.29892841    -0.12200
C1274       C  0.18531168  0.78304336  0.28852603     0.03300
C1275       C  0.18595384  0.78509642  0.26903542    -0.12700
C1276       C  0.16208721  0.79611405  0.25937338     0.18100
C1277       C  0.13635898  0.80427813  0.26944110    -0.09800
C1278       C  0.13539786  0.80213842  0.28890476    -0.02700
H1279       H  0.20569037  0.77854491  0.26132285     0.04700
C1280       C  0.16576003  0.80069280  0.23885949     0.20100
H1281       H  0.11583443  0.80951896  0.29619767     0.09800
C1282       C  0.14352808  0.76824980  0.22735013    -0.16100
C1283       C  0.14616374  0.77202627  0.20791513     0.02800
C1284       C  0.17169322  0.80881764  0.19963751    -0.11400
C1285       C  0.19364316  0.84131127  0.21127135    -0.01500
C1286       C  0.19112819  0.83735969  0.23069460    -0.06600
H1287       H  0.12360345  0.74000499  0.23351995     0.05800
H1288       H  0.21317774  0.86980934  0.20523177     0.09200
Br1289     Br  0.10319212  0.82011969  0.25714538    -0.06300
Br1290     Br  0.21897970  0.76623707  0.29930933    -0.03300
Br1291     Br  0.11174529  0.72667643  0.19347085    -0.00400
Br1292     Br  0.22312973  0.88256939  0.24572274    -0.04800
C1293       C  0.82924310  0.64156685  0.79371930    -0.12200
C1294       C  0.82627133  0.66828489  0.78143323     0.03300
C1295       C  0.83140567  0.66618308  0.76228913    -0.12700
C1296       C  0.83970177  0.63820247  0.75490271     0.18100
C1297       C  0.84266421  0.61163361  0.76688254    -0.09800
C1298       C  0.83733370  0.61333226  0.78601769    -0.02700
H1299       H  0.82893102  0.68660404  0.75303348     0.04700
C1300       C  0.84432392  0.63673250  0.73458648     0.20100
H1301       H  0.84024303  0.59269078  0.79490186     0.09800
C1302       C  0.88175358  0.64979511  0.72697451    -0.16100
C1303       C  0.88695015  0.64948458  0.70769843     0.02800
C1304       C  0.85424921  0.63620165  0.69573821    -0.11400
C1305       C  0.81676866  0.62247599  0.70353551    -0.01500
C1306       C  0.81164423  0.62260961  0.72272972    -0.06600
H1307       H  0.90696766  0.66018704  0.73608458     0.05800
H1308       H  0.79126763  0.61226101  0.69462687     0.09200
Br1309     Br  0.85333112  0.57213910  0.75761292    -0.06300
Br1310     Br  0.81484974  0.70826543  0.78919568    -0.03300
Br1311     Br  0.93872848  0.66523553  0.69869399    -0.00400
Br1312     Br  0.75933239  0.60254011  0.73216287    -0.04800
C1313       C  0.67713435  0.50094515  0.61643860    -0.12200
C1314       C  0.65564988  0.49118474  0.63322779     0.03300
C1315       C  0.62060117  0.45539651  0.63486485    -0.12700
C1316       C  0.60614114  0.42918131  0.61989485     0.18100
C1317       C  0.62704861  0.43934236  0.60295551    -0.09800
C1318       C  0.66234993  0.47494325  0.60136645    -0.02700
H1319       H  0.60405548  0.44834832  0.64772649     0.04700
C1320       C  0.56787694  0.39264322  0.62173444     0.20100
H1321       H  0.67851288  0.48215584  0.58838457     0.09800
C1322       C  0.53536252  0.38987644  0.61243630    -0.16100
C1323       C  0.49906651  0.35518655  0.61278163     0.02800
C1324       C  0.49505503  0.32158414  0.62215132    -0.11400
C1325       C  0.52705822  0.32576931  0.63277454    -0.01500
C1326       C  0.56317442  0.36091358  0.63267196    -0.06600
H1327       H  0.53833594  0.41498543  0.60479207     0.05800
H1328       H  0.52445977  0.30133862  0.64082470     0.09200
Br1329     Br  0.60870647  0.40548215  0.58166219    -0.06300
Br1330     Br  0.67098738  0.52704113  0.65376981    -0.03300
Br1331     Br  0.45639155  0.35746522  0.60102357    -0.00400
Br1332     Br  0.60557736  0.36383180  0.64714057    -0.04800
C1333       C  0.00250426  0.80965832  0.60767524    -0.12200
C1334       C  0.03679934  0.80966206  0.61379958     0.03300
C1335       C  0.07325641  0.84399671  0.61262883    -0.12700
C1336       C  0.07644057  0.87888426  0.60591551     0.18100
C1337       C  0.04268161  0.87885574  0.59937516    -0.09800
C1338       C  0.00622055  0.84437000  0.60014839    -0.02700
H1339       H  0.09929167  0.84380350  0.61746126     0.04700
C1340       C  0.11490896  0.91528164  0.60684140     0.20100
H1341       H  0.98040446  0.84518030  0.59550179     0.09800
C1342       C  0.13461229  0.93373020  0.59036985    -0.16100
C1343       C  0.17108852  0.96824920  0.59094763     0.02800
C1344       C  0.18834867  0.98465210  0.60827032    -0.11400
C1345       C  0.16899194  0.96560793  0.62470648    -0.01500
C1346       C  0.13251167  0.93127672  0.62411321    -0.06600
H1347       H  0.12163001  0.92109246  0.57703992     0.05800
H1348       H  0.18185548  0.97800158  0.63809032     0.09200
Br1349     Br  0.04431696  0.92567669  0.59049598    -0.06300
Br1350     Br  0.03682410  0.76429956  0.62373982    -0.03300
Br1351     Br  0.19687624  0.99038861  0.56772026    -0.00400
Br1352     Br  0.10725257  0.90817772  0.64730180    -0.04800
C1353       C  0.85138785  0.32497591  0.61486642    -0.12200
C1354       C  0.86450704  0.35003155  0.63048463     0.03300
C1355       C  0.86315121  0.38475946  0.63025292    -0.12700
C1356       C  0.84963436  0.39540227  0.61455154     0.18100
C1357       C  0.83781414  0.37125763  0.59871047    -0.09800
C1358       C  0.83863059  0.33619318  0.59898491    -0.02700
H1359       H  0.87335216  0.40397299  0.64225055     0.04700
C1360       C  0.84953933  0.43262642  0.61480441     0.20100
H1361       H  0.82880063  0.31739196  0.58684268     0.09800
C1362       C  0.87823895  0.46434631  0.60470248    -0.16100
C1363       C  0.87922850  0.50026656  0.60452171     0.02800
C1364       C  0.85094939  0.50486402  0.61485428    -0.11400
C1365       C  0.82293402  0.47300748  0.62542873    -0.01500
C1366       C  0.82192389  0.43703693  0.62534932    -0.06600
H1367       H  0.89993168  0.46100075  0.59683534     0.05800
H1368       H  0.80083959  0.47556185  0.63333512     0.09200
Br1369     Br  0.81965135  0.38461714  0.57662354    -0.06300
Br1370     Br  0.88797065  0.34062293  0.65181087    -0.03300
Br1371     Br  0.92074220  0.54107456  0.59005260    -0.00400
Br1372     Br  0.78113724  0.39407259  0.63902529    -0.04800
C1373       C  0.84179707  0.82245163  0.61354121    -0.12200
C1374       C  0.83259093  0.83777375  0.59786663     0.03300
C1375       C  0.83732853  0.87541045  0.59864333    -0.12700
C1376       C  0.85101238  0.89791004  0.61490795     0.18100
C1377       C  0.85992307  0.88244458  0.63059845    -0.09800
C1378       C  0.85519592  0.84486984  0.62983554    -0.02700
H1379       H  0.82954972  0.88687498  0.58668206     0.04700
C1380       C  0.85291963  0.93620031  0.61571128     0.20100
H1381       H  0.86243929  0.83327079  0.64192869     0.09800
C1382       C  0.82287911  0.93874160  0.62489833    -0.16100
C1383       C  0.82267668  0.97412276  0.62560716     0.02800
C1384       C  0.85333219  0.00805065  0.61703007    -0.11400
C1385       C  0.88337459  0.00516273  0.60776058    -0.01500
C1386       C  0.88339059  0.96965282  0.60709764    -0.06600
H1387       H  0.79911363  0.91280047  0.63134337     0.05800
H1388       H  0.90729911  0.03076341  0.60119068     0.09200
Br1389     Br  0.87894829  0.91175201  0.65323469    -0.06300
Br1390     Br  0.81075034  0.80729876  0.57569599    -0.03300
Br1391     Br  0.77817298  0.97277735  0.63743134    -0.00400
Br1392     Br  0.92606663  0.96839315  0.59476642    -0.04800
C1393       C  0.64633371  0.80412265  0.20238626    -0.12200
C1394       C  0.67674161  0.83402996  0.21298786     0.03300
C1395       C  0.67331207  0.83452972  0.23230739    -0.12700
C1396       C  0.64034227  0.80510581  0.24162378     0.18100
C1397       C  0.60973232  0.77518640  0.23107012    -0.09800
C1398       C  0.61276938  0.77513094  0.21160421    -0.02700
H1399       H  0.69656684  0.85828606  0.24015093     0.04700
C1400       C  0.63874866  0.80689969  0.26225616     0.20100
H1401       H  0.58900350  0.75216754  0.20364593     0.09800
C1402       C  0.60846851  0.81044475  0.27086871    -0.16100
C1403       C  0.60738423  0.81397930  0.29026309     0.02800
C1404       C  0.63747122  0.81496039  0.30128359    -0.11400
C1405       C  0.66779714  0.81179177  0.29267894    -0.01500
C1406       C  0.66860069  0.80759245  0.27344634    -0.06600
H1407       H  0.58588329  0.81098225  0.26245199     0.05800
H1408       H  0.69078773  0.81189272  0.30105485     0.09200
Br1409     Br  0.56382048  0.73319060  0.24254248    -0.06300
Br1410     Br  0.72259460  0.87663714  0.20186861    -0.03300
Br1411     Br  0.56569378  0.81954955  0.30093983    -0.00400
Br1412     Br  0.71081323  0.80189986  0.26342069    -0.04800
C1413       C  0.70755310  0.75204457  0.45970044    -0.12200
C1414       C  0.68607645  0.71481838  0.46847895     0.03300
C1415       C  0.70063469  0.70693981  0.48473972    -0.12700
C1416       C  0.73611628  0.73533204  0.49273168     0.18100
C1417       C  0.75739063  0.77230306  0.48417299    -0.09800
C1418       C  0.74304468  0.78038262  0.46799307    -0.02700
H1419       H  0.68426662  0.67823585  0.49115160     0.04700
C1420       C  0.75087202  0.72569063  0.50977251     0.20100
H1421       H  0.76013013  0.80927773  0.46187703     0.09800
C1422       C  0.78622787  0.72492951  0.50901322    -0.16100
C1423       C  0.80123722  0.71632749  0.52485397     0.02800
C1424       C  0.78053311  0.70783657  0.54176630    -0.11400
C1425       C  0.74487767  0.70791859  0.54248478    -0.01500
C1426       C  0.73009810  0.71699853  0.52671970    -0.06600
H1427       H  0.80207672  0.73081968  0.49598825     0.05800
H1428       H  0.72861221  0.70117969  0.55542642     0.09200
Br1429     Br  0.80608093  0.81317765  0.49413277    -0.06300
Br1430     Br  0.63731482  0.67258625  0.45924066    -0.03300
Br1431     Br  0.84859971  0.71389800  0.52241201    -0.00400
Br1432     Br  0.68212620  0.71830069  0.52923471    -0.04800
C1433       C  0.81671374  0.96174753  0.38667106    -0.12200
C1434       C  0.81437783  0.99558322  0.38233082     0.03300
C1435       C  0.84822317  0.03248067  0.38252739    -0.12700
C1436       C  0.88488835  0.03664659  0.38677554     0.18100
C1437       C  0.88737383  0.00309454  0.39136301    -0.09800
C1438       C  0.85335470  0.96599864  0.39138158    -0.02700
H1439       H  0.84594667  0.05821763  0.37935656     0.04700
C1440       C  0.91984649  0.07644829  0.38658790     0.20100
H1441       H  0.85568885  0.94032555  0.39461845     0.09800
C1442       C  0.93961942  0.09307873  0.40327871    -0.16100
C1443       C  0.97208964  0.13112731  0.40370400     0.02800
C1444       C  0.98502409  0.15347669  0.38713206    -0.11400
C1445       C  0.96451912  0.13687890  0.37052899    -0.01500
C1446       C  0.93246862  0.09874810  0.37011725    -0.06600
H1447       H  0.92950369  0.07641615  0.41608423     0.05800
H1448       H  0.97411721  0.15323759  0.35762260     0.09200
Br1449     Br  0.93673567  0.00638037  0.39687007    -0.06300
Br1450     Br  0.76566768  0.99388075  0.37690848    -0.03300
Br1451     Br  0.99585547  0.15112405  0.42751623    -0.00400
Br1452     Br  0.90820227  0.07786376  0.34650846    -0.04800
C1453       C  0.30593182  0.47721324  0.37063996    -0.12200
C1454       C  0.30826131  0.51383328  0.37338333     0.03300
C1455       C  0.34504389  0.54767032  0.37585589    -0.12700
C1456       C  0.37966248  0.54553245  0.37552591     0.18100
C1457       C  0.37740562  0.50933846  0.37194497    -0.09800
C1458       C  0.34078266  0.47554217  0.36973571    -0.02700
H1459       H  0.34663148  0.57558893  0.37836014     0.04700
C1460       C  0.41814900  0.58132419  0.37843369     0.20100
H1461       H  0.33942729  0.44758619  0.36770885     0.09800
C1462       C  0.43479834  0.59079685  0.39628004    -0.16100
C1463       C  0.47228453  0.62353825  0.39917180     0.02800
C1464       C  0.49366435  0.64762306  0.38392998    -0.11400
C1465       C  0.47639916  0.63757248  0.36610294    -0.01500
C1466       C  0.43932294  0.60487730  0.36330571    -0.06600
H1467       H  0.41864009  0.57243186  0.40798509     0.05800
H1468       H  0.49197218  0.65494064  0.35406338     0.09200
Br1469     Br  0.42370886  0.50482317  0.37010639    -0.06300
Br1470     Br  0.26215267  0.51862222  0.37550009    -0.03300
Br1471     Br  0.49154139  0.63385189  0.42425625    -0.00400
Br1472     Br  0.41912118  0.59263364  0.33843051    -0.04800
C1473       C  0.82292616  0.80104669  0.38693422    -0.12200
C1474       C  0.83209477  0.77684853  0.37576562     0.03300
C1475       C  0.87025261  0.78259478  0.37576450    -0.12700
C1476       C  0.89986698  0.81198310  0.38657801     0.18100
C1477       C  0.89122775  0.83608603  0.39764138    -0.09800
C1478       C  0.85316689  0.83048972  0.39781555    -0.02700
H1479       H  0.87697721  0.76404945  0.36719451     0.04700
C1480       C  0.93988136  0.81757531  0.38590117     0.20100
H1481       H  0.84754426  0.84983725  0.40635155     0.09800
C1482       C  0.96685245  0.84387864  0.37292981    -0.16100
C1483       C  0.00509569  0.85001014  0.37201286     0.02800
C1484       C  0.01699984  0.83044375  0.38454135    -0.11400
C1485       C  0.99001384  0.80411611  0.39749860    -0.01500
C1486       C  0.95138416  0.79698542  0.39799020    -0.06600
H1487       H  0.95801131  0.85944566  0.36343224     0.05800
H1488       H  0.99867873  0.78816083  0.40684378     0.09200
Br1489     Br  0.93081072  0.87731293  0.41255319    -0.06300
Br1490     Br  0.79500342  0.73507989  0.36014102    -0.03300
Br1491     Br  0.04020287  0.88555077  0.35360248    -0.00400
Br1492     Br  0.91485900  0.75775911  0.41475678    -0.04800
C1493       C  0.50587082  0.81445131  0.37957876    -0.12200
C1494       C  0.47106240  0.78522237  0.37094636     0.03300
C1495       C  0.43687910  0.78788573  0.37173251    -0.12700
C1496       C  0.43662215  0.81901221  0.38102796     0.18100
C1497       C  0.47108324  0.84830291  0.38937563    -0.09800
C1498       C  0.50529415  0.84597430  0.38856105    -0.02700
H1499       H  0.41017437  0.76528143  0.36529956     0.04700
C1500       C  0.40018339  0.82074634  0.38193069     0.20100
H1501       H  0.53154198  0.86890768  0.39515791     0.09800
C1502       C  0.37604887  0.80599664  0.39766407    -0.16100
C1503       C  0.34219860  0.80902853  0.39930837     0.02800
C1504       C  0.33211240  0.82672592  0.38492268    -0.11400
C1505       C  0.35607023  0.84084431  0.36905933    -0.01500
C1506       C  0.39019833  0.83840714  0.36759754    -0.06600
H1507       H  0.38374274  0.79232635  0.40871690     0.05800
H1508       H  0.34851400  0.85439553  0.35789431     0.09200
Br1509     Br  0.47251409  0.89185503  0.40212838    -0.06300
Br1510     Br  0.46682335  0.73963396  0.35892772    -0.03300
Br1511     Br  0.30987727  0.78680428  0.42093776    -0.00400
Br1512     Br  0.42312396  0.86071543  0.34616387    -0.04800
loop_ 
_geom_bond_atom_site_label_1 
_geom_bond_atom_site_label_2 
_geom_bond_distance 
_geom_bond_site_symmetry_2 
_ccdc_geom_bond_type 
Zr1           O2   2.441       .  S
Zr1           O3   2.430       .  S
Zr1           O4   2.428       .  S
Zr1           O7   2.442       .  S
Zr1           O9   2.384       .  S
Zr1          O10   2.378       .  S
Zr1          O11   2.406       .  S
Zr1          O12   2.396       .  S
O2           H58   0.990       .  S
O2           H66   0.990       .  S
O3           C23   1.285       .  A
O4           C25   1.285       .  A
O5          Zr15   2.420       .  S
O5           C24   1.282       .  A
O6          Zr14   2.443       .  S
O6           C25   1.285       .  A
O7           C24   1.287       .  A
O8          Zr16   2.430       .  S
O8           C23   1.282       .  A
O9          Zr14   2.395       .  S
O9          Zr16   2.367       .  S
O10         Zr15   2.385       .  S
O10         Zr16   2.378       .  S
O10          H45   0.965       .  S
O11         Zr14   2.401       .  S
O11         Zr31   2.394       .  S
O11          H48   0.964       .  S
O12         Zr15   2.391       .  S
O12         Zr31   2.389       .  S
Zr13         O38   2.442       .  S
Zr13         O32   2.433       .  S
Zr13         O40   2.439       .  S
Zr13         O28   2.412       .  S
Zr13         O19   2.385       .  S
Zr13         O20   2.414       .  S
Zr13         O21   2.380       .  S
Zr13         O22   2.379       .  S
Zr14         O33   2.436       .  S
Zr14         O26   2.434       .  S
Zr14         O27   2.453       .  S
Zr14         O20   2.400       .  S
Zr14         O21   2.391       .  S
Zr15         O17   2.435       .  S
Zr15         O39   2.439       .  S
Zr15         O41   2.429       .  S
Zr15         O19   2.376       .  S
Zr15         O22   2.388       .  S
Zr16         O42   2.436       .  S
Zr16         O43   2.436       .  S
Zr16         O18   2.437       .  S
Zr16         O19   2.381       .  S
Zr16         O20   2.405       .  S
O17          H54   0.990       .  S
O18          H49   0.990       .  S
O18          H63   0.990       .  S
O20          H46   0.969       .  S
O21         Zr31   2.376       .  S
O22         Zr31   2.393       .  S
O22          H47   0.966       .  S
C23        C1473   1.494       .  S
C24        C1433   1.478       .  S
C25        C1413   1.497       .  S
O26          H62   0.990       .  S
O27          C29   1.287       .  A
O28          C29   1.280       .  A
C29        C1464   1.493       .  S
O30         Zr31   2.440       .  S
O30          H59   0.990       .  S
Zr31         O34   2.438       .  S
Zr31         O35   2.439       .  S
Zr31         O36   2.407       .  S
O32          C37   1.282       .  A
O33          H50   0.990       .  S
O33          H65   0.990       .  S
O34          H51   0.990       .  S
O35          H55   0.990       .  S
O35          H64   0.990       .  S
O36          C37   1.280       .  A
C37        C1493   1.481       .  S
O38          H57   0.990       .  S
O38          H61   0.990       .  S
O39          H53   0.990       .  S
O39          H60   0.990       .  S
O40          C44   1.284       .  A
O41          C44   1.284       .  A
O42          H52   0.990       .  S
O43          H56   0.990       .  S
C44        C1404   1.475       .  S
Zr67         O68   2.438       .  S
Zr67         O69   2.418       .  S
Zr67         O70   2.448       .  S
Zr67         O73   2.440       .  S
Zr67         O75   2.380       .  S
Zr67         O76   2.386       .  S
Zr67         O77   2.403       .  S
Zr67         O78   2.395       .  S
O68         H124   0.990       .  S
O68         H132   0.990       .  S
O69          C89   1.281       .  A
O70          C91   1.287       .  A
O71         Zr81   2.419       .  S
O71          C90   1.281       .  A
O72         Zr80   2.411       .  S
O72          C91   1.281       .  A
O73          C90   1.287       .  A
O74         Zr82   2.419       .  S
O74          C89   1.281       .  A
O75         Zr80   2.394       .  S
O75         Zr82   2.367       .  S
O76         Zr81   2.395       .  S
O76         Zr82   2.379       .  S
O76         H111   0.966       .  S
O77         Zr80   2.398       .  S
O77         Zr97   2.392       .  S
O77         H114   0.966       .  S
O78         Zr81   2.397       .  S
O78         Zr97   2.379       .  S
Zr79        O104   2.442       .  S
Zr79         O98   2.446       .  S
Zr79        O106   2.445       .  S
Zr79         O94   2.421       .  S
Zr79         O85   2.390       .  S
Zr79         O86   2.416       .  S
Zr79         O87   2.380       .  S
Zr79         O88   2.380       .  S
Zr80         O99   2.436       .  S
Zr80         O92   2.436       .  S
Zr80         O93   2.432       .  S
Zr80         O86   2.394       .  S
Zr80         O87   2.386       .  S
Zr81         O83   2.436       .  S
Zr81        O105   2.440       .  S
Zr81        O107   2.437       .  S
Zr81         O85   2.383       .  S
Zr81         O88   2.391       .  S
Zr82        O108   2.435       .  S
Zr82        O109   2.434       .  S
Zr82         O84   2.437       .  S
Zr82         O85   2.380       .  S
Zr82         O86   2.409       .  S
O83         H120   0.990       .  S
O84         H115   0.990       .  S
O84         H129   0.990       .  S
O86         H112   0.963       .  S
O87         Zr97   2.383       .  S
O88         Zr97   2.395       .  S
O88         H113   0.966       .  S
C89        C1373   1.465       .  S
C90        C1333   1.482   1_655  S
C91        C1424   1.472       .  S
O92         H128   0.990       .  S
O93          C95   1.283       .  A
O94          C95   1.281       .  A
C95        C1313   1.473       .  S
O96         Zr97   2.442       .  S
O96         H125   0.989       .  S
Zr97        O100   2.439       .  S
Zr97        O101   2.439       .  S
Zr97        O102   2.394       .  S
O98         C103   1.286       .  A
O99         H116   0.990       .  S
O99         H131   0.990       .  S
O100        H117   0.990       .  S
O101        H121   0.989       .  S
O101        H130   0.990       .  S
O102        C103   1.275       .  A
C103       C1364   1.481       .  S
O104        H123   0.990       .  S
O104        H127   0.991       .  S
O105        H119   0.990       .  S
O105        H126   0.990       .  S
O106        C110   1.286       .  A
O107        C110   1.284       .  A
O108        H118   0.990       .  S
O109        H122   0.990       .  S
C110       C1304   1.480       .  S
Zr133       O134   2.438       .  S
Zr133       O135   2.435       .  S
Zr133       O136   2.454       .  S
Zr133       O139   2.435       .  S
Zr133       O141   2.382       .  S
Zr133       O142   2.385       .  S
Zr133       O143   2.405       .  S
Zr133       O144   2.403       .  S
O134        H190   0.990       .  S
O134        H198   0.989       .  S
O135        C155   1.284       .  A
O136        C157   1.287       .  A
O137       Zr147   2.427       .  S
O137        C156   1.282       .  A
O138       Zr146   2.427       .  S
O138        C157   1.284       .  A
O139        C156   1.285       .  A
O140       Zr148   2.416       .  S
O140        C155   1.281       .  A
O141       Zr146   2.393       .  S
O141       Zr148   2.376       .  S
O142       Zr147   2.386       .  S
O142       Zr148   2.381       .  S
O142        H177   0.965       .  S
O143       Zr146   2.399       .  S
O143       Zr163   2.400       .  S
O143        H180   0.964       .  S
O144       Zr147   2.394       .  S
O144       Zr163   2.391       .  S
Zr145       O170   2.437       .  S
Zr145       O164   2.432       .  S
Zr145       O172   2.460       .  S
Zr145       O160   2.424       .  S
Zr145       O151   2.387       .  S
Zr145       O152   2.411       .  S
Zr145       O153   2.382       .  S
Zr145       O154   2.385       .  S
Zr146       O165   2.437       .  S
Zr146       O158   2.435       .  S
Zr146       O159   2.424       .  S
Zr146       O152   2.399       .  S
Zr146       O153   2.392       .  S
Zr147       O149   2.435       .  S
Zr147       O171   2.438       .  S
Zr147       O173   2.438       .  S
Zr147       O151   2.383       .  S
Zr147       O154   2.387       .  S
Zr148       O174   2.434       .  S
Zr148       O175   2.435       .  S
Zr148       O150   2.436       .  S
Zr148       O151   2.382       .  S
Zr148       O152   2.396       .  S
O149        H186   0.990       .  S
O150        H181   0.990       .  S
O150        H195   0.990       .  S
O152        H178   0.967       .  S
O153       Zr163   2.372       .  S
O154       Zr163   2.393       .  S
O154        H179   0.967       .  S
C155       C1233   1.470       .  S
C156       C1484   1.468       .  S
C157       C1213   1.485       .  S
O158        H194   0.990       .  S
O159        C161   1.282       .  A
O160        C161   1.279       .  A
C161       C1504   1.469       .  S
O162       Zr163   2.440       .  S
O162        H191   0.990       .  S
Zr163       O166   2.439       .  S
Zr163       O167   2.438       .  S
Zr163       O168   2.413       .  S
O164        C169   1.283       .  A
O165        H182   0.990       .  S
O165        H197   0.990       .  S
O166        H183   0.990       .  S
O167        H187   0.990       .  S
O167        H196   0.990       .  S
O168        C169   1.280       .  A
C169       C1264   1.469       .  S
O170        H189   0.991       .  S
O170        H193   0.991       .  S
O171        H185   0.990       .  S
O171        H192   0.990       .  S
O172        C176   1.288       .  A
O173        C176   1.287       .  A
O174        H184   0.990       .  S
O175        H188   0.990       .  S
C176       C1273   1.504       .  S
Zr199       O200   2.439       .  S
Zr199       O201   2.410       .  S
Zr199       O202   2.425       .  S
Zr199       O205   2.414       .  S
Zr199       O207   2.376       .  S
Zr199       O208   2.383       .  S
Zr199       O209   2.399       .  S
Zr199       O210   2.392       .  S
O200        H256   0.991       .  S
O200        H264   0.990       .  S
O201        C221   1.279       .  A
O202        C223   1.283       .  A
O203       Zr213   2.447       .  S
O203        C222   1.287       .  A
O204       Zr212   2.444       .  S
O204        C223   1.286       .  A
O205        C222   1.282       .  A
O206       Zr214   2.427       .  S
O206        C221   1.283       .  A
O207       Zr212   2.388       .  S
O207       Zr214   2.366       .  S
O208       Zr213   2.394       .  S
O208       Zr214   2.377       .  S
O208        H243   0.969       .  S
O209       Zr212   2.397       .  S
O209       Zr229   2.401       .  S
O209        H246   0.965       .  S
O210       Zr213   2.393       .  S
O210       Zr229   2.386       .  S
Zr211       O236   2.443       .  S
Zr211       O230   2.458       .  S
Zr211       O238   2.448       .  S
Zr211       O226   2.418       .  S
Zr211       O217   2.393       .  S
Zr211       O218   2.418       .  S
Zr211       O219   2.379       .  S
Zr211       O220   2.381       .  S
Zr212       O231   2.434       .  S
Zr212       O224   2.434       .  S
Zr212       O225   2.436       .  S
Zr212       O218   2.400       .  S
Zr212       O219   2.396       .  S
Zr213       O215   2.436       .  S
Zr213       O237   2.439       .  S
Zr213       O239   2.454       .  S
Zr213       O217   2.389       .  S
Zr213       O220   2.397       .  S
Zr214       O240   2.435       .  S
Zr214       O241   2.433       .  S
Zr214       O216   2.437       .  S
Zr214       O217   2.385       .  S
Zr214       O218   2.409       .  S
O215        H252   0.990       .  S
O216        H247   0.990   1_545  S
O216        H261   0.990       .  S
O218        H244   0.968       .  S
O219       Zr229   2.379       .  S
O220       Zr229   2.395       .  S
O220        H245   0.964       .  S
C221       C1344   1.471   1_545  S
C222       C1193   1.474       .  S
C223       C1224   1.489       .  S
O224        H260   0.990       .  S
O225        C227   1.284       .  A
O226        C227   1.280       .  A
C227       C1173   1.475       .  S
O228       Zr229   2.441       .  S
O228        H257   0.990       .  S
Zr229       O232   2.439       .  S
Zr229       O233   2.439       .  S
Zr229       O234   2.415       .  S
O230        C235   1.288       .  A
O231        H248   0.990       .  S
O231        H263   0.990       .  S
O232        H249   0.990       .  S
O233        H253   0.989       .  S
O233        H262   0.990       .  S
O234        C235   1.279       .  A
C235       C1324   1.494       .  S
O236        H255   0.990       .  S
O236        H259   0.990       .  S
O237        H251   0.990       .  S
O237        H258   0.990       .  S
O238        C242   1.285       .  A
O239        C242   1.288       .  A
O240        H250   0.990       .  S
O241        H254   0.990       .  S
C242       C1164   1.485       .  S
Zr265       O266   2.435       .  S
Zr265       O267   2.424       .  S
Zr265       O268   2.427       .  S
Zr265       O271   2.419       .  S
Zr265       O273   2.381       .  S
Zr265       O274   2.380       .  S
Zr265       O275   2.405       .  S
Zr265       O276   2.396       .  S
O266        H322   0.990       .  S
O266        H330   0.990       .  S
O267        C287   1.282       .  A
O268        C289   1.284       .  A
O269       Zr279   2.433       .  S
O269        C288   1.285       .  A
O270       Zr278   2.437       .  S
O270        C289   1.287       .  A
O271        C288   1.282       .  A
O272       Zr280   2.432       .  S
O272        C287   1.284       .  A
O273       Zr278   2.393       .  S
O273       Zr280   2.369       .  S
O274       Zr279   2.385       .  S
O274       Zr280   2.376       .  S
O274        H309   0.966       .  S
O275       Zr278   2.400       .  S
O275       Zr295   2.398       .  S
O275        H312   0.965       .  S
O276       Zr279   2.385       .  S
O276       Zr295   2.390       .  S
Zr277       O302   2.451       .  S
Zr277       O296   2.449       .  S
Zr277       O304   2.434       .  S
Zr277       O292   2.411       .  S
Zr277       O283   2.395       .  S
Zr277       O284   2.411       .  S
Zr277       O285   2.378       .  S
Zr277       O286   2.383       .  S
Zr278       O297   2.437       .  S
Zr278       O290   2.433       .  S
Zr278       O291   2.452       .  S
Zr278       O284   2.394       .  S
Zr278       O285   2.384       .  S
Zr279       O281   2.434       .  S
Zr279       O303   2.438       .  S
Zr279       O305   2.422       .  S
Zr279       O283   2.385       .  S
Zr279       O286   2.387       .  S
Zr280       O306   2.435       .  S
Zr280       O307   2.436       .  S
Zr280       O282   2.437       .  S
Zr280       O283   2.388       .  S
Zr280       O284   2.403       .  S
O281        H318   0.990       .  S
O282        H313   0.990   1_455  S
O282        H327   0.990       .  S
O284        H310   0.964       .  S
O285       Zr295   2.373       .  S
O286       Zr295   2.387       .  S
O286        H311   0.967       .  S
C287       C1444   1.482   1_455  S
C288       C1244   1.480       .  S
C289       C1124   1.479       .  S
O290        H326   0.990       .  S
O291        C293   1.287       .  A
O292        C293   1.281       .  A
C293       C1253   1.496       .  S
O294       Zr295   2.439       .  S
O294        H323   0.990       .  S
Zr295       O298   2.437       .  S
Zr295       O299   2.439       .  S
Zr295       O300   2.412       .  S
O296        C301   1.288       .  A
O297        H314   0.990       .  S
O297        H329   0.990       .  S
O298        H315   0.990       .  S
O299        H319   0.990       .  S
O299        H328   0.990       .  S
O300        C301   1.280       .  A
C301       C1453   1.476       .  S
O302        H321   0.990       .  S
O302        H325   0.990       .  S
O303        H317   0.990       .  S
O303        H324   0.990       .  S
O304        C308   1.284       .  A
O305        C308   1.284       .  A
O306        H316   0.990       .  S
O307        H320   0.990       .  S
C308       C1133   1.476       .  S
Zr331       O332   2.437       .  S
Zr331       O333   2.426       .  S
Zr331       O334   2.439       .  S
Zr331       O337   2.420       .  S
Zr331       O339   2.373       .  S
Zr331       O340   2.384       .  S
Zr331       O341   2.402       .  S
Zr331       O342   2.401       .  S
O332        H388   0.990       .  S
O332        H396   0.990       .  S
O333        C353   1.283       .  A
O334        C355   1.286       .  A
O335       Zr345   2.435       .  S
O335        C354   1.284       .  A
O336       Zr344   2.426       .  S
O336        C355   1.283       .  A
O337        C354   1.284       .  A
O338       Zr346   2.428       .  S
O338        C353   1.283       .  A
O339       Zr344   2.386       .  S
O339       Zr346   2.368       .  S
O340       Zr345   2.386       .  S
O340       Zr346   2.374       .  S
O340        H375   0.965       .  S
O341       Zr344   2.397       .  S
O341       Zr361   2.402       .  S
O341        H378   0.965       .  S
O342       Zr345   2.391       .  S
O342       Zr361   2.391       .  S
Zr343       O368   2.439       .  S
Zr343       O362   2.439       .  S
Zr343       O370   2.435       .  S
Zr343       O358   2.423       .  S
Zr343       O349   2.397       .  S
Zr343       O350   2.407       .  S
Zr343       O351   2.378       .  S
Zr343       O352   2.384       .  S
Zr344       O363   2.437       .  S
Zr344       O356   2.433       .  S
Zr344       O357   2.419       .  S
Zr344       O350   2.394       .  S
Zr344       O351   2.386       .  S
Zr345       O347   2.436       .  S
Zr345       O369   2.440       .  S
Zr345       O371   2.429       .  S
Zr345       O349   2.393       .  S
Zr345       O352   2.396       .  S
Zr346       O372   2.434       .  S
Zr346       O373   2.437       .  S
Zr346       O348   2.438       .  S
Zr346       O349   2.391       .  S
Zr346       O350   2.395       .  S
O347        H384   0.990       .  S
O348        H379   0.990   1_655  S
O348        H393   0.990       .  S
O350        H376   0.963       .  S
O351       Zr361   2.373       .  S
O352       Zr361   2.387       .  S
O352        H377   0.966       .  S
C353       C1204   1.476   1_655  S
C354       C1384   1.482       .  S
C355       C1113   1.484       .  S
O356        H392   0.990       .  S
O357        C359   1.282       .  A
O358        C359   1.282       .  A
C359       C1353   1.469       .  S
O360       Zr361   2.439       .  S
O360        H389   0.990       .  S
Zr361       O364   2.437       .  S
Zr361       O365   2.439       .  S
Zr361       O366   2.412       .  S
O362        C367   1.284       .  A
O363        H380   0.990       .  S
O363        H395   0.990       .  S
O364        H381   0.990       .  S
O365        H385   0.990       .  S
O365        H394   0.990       .  S
O366        C367   1.280       .  A
C367       C1184   1.472       .  S
O368        H387   0.989       .  S
O368        H391   0.990       .  S
O369        H383   0.990       .  S
O369        H390   0.990       .  S
O370        C374   1.282       .  A
O371        C374   1.284       .  A
O372        H382   0.990       .  S
O373        H386   0.990       .  S
C374       C1093   1.487       .  S
Zr397       O398   2.438       .  S
Zr397       O399   2.412       .  S
Zr397       O400   2.434       .  S
Zr397       O403   2.430       .  S
Zr397       O405   2.377       .  S
Zr397       O406   2.385       .  S
Zr397       O407   2.399       .  S
Zr397       O408   2.396       .  S
O398        H454   0.990       .  S
O398        H462   0.990       .  S
O399        C419   1.282       .  A
O400        C421   1.284       .  A
O401       Zr411   2.425       .  S
O401        C420   1.284       .  A
O402       Zr410   2.424       .  S
O402        C421   1.284       .  A
O403        C420   1.284       .  A
O404       Zr412   2.444       .  S
O404        C419   1.285       .  A
O405       Zr410   2.388       .  S
O405       Zr412   2.366       .  S
O406       Zr411   2.390       .  S
O406       Zr412   2.376       .  S
O406        H441   0.967       .  S
O407       Zr410   2.395       .  S
O407       Zr427   2.396       .  S
O407        H444   0.964       .  S
O408       Zr411   2.385       .  S
O408       Zr427   2.384       .  S
Zr409       O434   2.445       .  S
Zr409       O428   2.452       .  S
Zr409       O436   2.445       .  S
Zr409       O424   2.426       .  S
Zr409       O415   2.401       .  S
Zr409       O416   2.416       .  S
Zr409       O417   2.376       .  S
Zr409       O418   2.384       .  S
Zr410       O429   2.436       .  S
Zr410       O422   2.433       .  S
Zr410       O423   2.428       .  S
Zr410       O416   2.396       .  S
Zr410       O417   2.384       .  S
Zr411       O413   2.435       .  S
Zr411       O435   2.439       .  S
Zr411       O437   2.427       .  S
Zr411       O415   2.386       .  S
Zr411       O418   2.396       .  S
Zr412       O438   2.433       .  S
Zr412       O439   2.436       .  S
Zr412       O414   2.435       .  S
Zr412       O415   2.391       .  S
Zr412       O416   2.406       .  S
O413        H450   0.990       .  S
O414        H445   0.990       .  S
O414        H459   0.990       .  S
O416        H442   0.968       .  S
O417       Zr427   2.377       .  S
O418       Zr427   2.396       .  S
O418        H443   0.965       .  S
C419       C1053   1.489       .  S
C420       C1004   1.486       .  S
C421       C1073   1.475       .  S
O422        H458   0.990       .  S
O423        C425   1.283       .  A
O424        C425   1.283       .  A
C425       C1013   1.485       .  S
O426       Zr427   2.439       .  S
O426        H455   0.990       .  S
Zr427       O430   2.437       .  S
Zr427       O431   2.440       .  S
Zr427       O432   2.401       .  S
O428        C433   1.286       .  A
O429        H446   0.990       .  S
O429        H461   0.990       .  S
O430        H447   0.990       .  S
O431        H451   0.990       .  S
O431        H460   0.989       .  S
O432        C433   1.278       .  A
C433       C1033   1.481       .  S
O434        H453   0.991       .  S
O434        H457   0.991       .  S
O435        H449   0.990       .  S
O435        H456   0.990       .  S
O436        C440   1.283       .  A
O437        C440   1.283       .  A
O438        H448   0.990       .  S
O439        H452   0.990       .  S
C440       C1144   1.474       .  S
Zr463       O464   2.439       .  S
Zr463       O465   2.432       .  S
Zr463       O466   2.437       .  S
Zr463       O469   2.434       .  S
Zr463       O471   2.379       .  S
Zr463       O472   2.383       .  S
Zr463       O473   2.402       .  S
Zr463       O474   2.396       .  S
O464        H520   0.990       .  S
O464        H528   0.990       .  S
O465        C485   1.284       .  A
O466        C487   1.283       .  A
O467       Zr477   2.433       .  S
O467        C486   1.286       .  A
O468       Zr476   2.435       .  S
O468        C487   1.286       .  A
O469        C486   1.285       .  A
O470       Zr478   2.424       .  S
O470        C485   1.282       .  A
O471       Zr476   2.392       .  S
O471       Zr478   2.371       .  S
O472       Zr477   2.388       .  S
O472       Zr478   2.381       .  S
O472        H507   0.964       .  S
O473       Zr476   2.395       .  S
O473       Zr493   2.397       .  S
O473        H510   0.969       .  S
O474       Zr477   2.385       .  S
O474       Zr493   2.385       .  S
Zr475       O500   2.441       .  S
Zr475       O494   2.441       .  S
Zr475       O502   2.448       .  S
Zr475       O490   2.429       .  S
Zr475       O481   2.391       .  S
Zr475       O482   2.416       .  S
Zr475       O483   2.383       .  S
Zr475       O484   2.382       .  S
Zr476       O495   2.437       .  S
Zr476       O488   2.434       .  S
Zr476       O489   2.430       .  S
Zr476       O482   2.406       .  S
Zr476       O483   2.394       .  S
Zr477       O479   2.435       .  S
Zr477       O501   2.440       .  S
Zr477       O503   2.434       .  S
Zr477       O481   2.387       .  S
Zr477       O484   2.393       .  S
Zr478       O504   2.435       .  S
Zr478       O505   2.436       .  S
Zr478       O480   2.435       .  S
Zr478       O481   2.387       .  S
Zr478       O482   2.397       .  S
O479        H516   0.990       .  S
O480        H511   0.990       .  S
O480        H525   0.990       .  S
O482        H508   0.964       .  S
O483       Zr493   2.373       .  S
O484       Zr493   2.390       .  S
O484        H509   0.965       .  S
C485        C973   1.471       .  S
C486        C944   1.485       .  S
C487       C1084   1.494       .  S
O488        H524   0.990       .  S
O489        C491   1.284       .  A
O490        C491   1.282       .  A
C491        C924   1.473       .  S
O492       Zr493   2.438       .  S
O492        H521   0.990       .  S
Zr493       O496   2.438       .  S
Zr493       O497   2.440       .  S
Zr493       O498   2.405       .  S
O494        C499   1.283       .  A
O495        H512   0.990       .  S
O495        H527   0.990       .  S
O496        H513   0.990       .  S
O497        H517   0.990       .  S
O497        H526   0.990       .  S
O498        C499   1.279       .  A
C499        C964   1.479       .  S
O500        H519   0.989       .  S
O500        H523   0.990       .  S
O501        H515   0.990       .  S
O501        H522   0.990       .  S
O502        C506   1.287       .  A
O503        C506   1.286       .  A
O504        H514   0.990       .  S
O505        H518   0.990       .  S
C506       C1153   1.490       .  S
Zr529       O530   2.436       .  S
Zr529       O531   2.426       .  S
Zr529       O532   2.435       .  S
Zr529       O535   2.422       .  S
Zr529       O537   2.379       .  S
Zr529       O538   2.387       .  S
Zr529       O539   2.403       .  S
Zr529       O540   2.394       .  S
O530        H586   0.990       .  S
O530        H594   0.990       .  S
O531        C551   1.282       .  A
O532        C553   1.284       .  A
O533       Zr543   2.441       .  S
O533        C552   1.286       .  A
O534       Zr542   2.439       .  S
O534        C553   1.287       .  A
O535        C552   1.283       .  A
O536       Zr544   2.431       .  S
O536        C551   1.284       .  A
O537       Zr542   2.387       .  S
O537       Zr544   2.363       .  S
O538       Zr543   2.393       .  S
O538       Zr544   2.384       .  S
O538        H573   0.965       .  S
O539       Zr542   2.402       .  S
O539       Zr559   2.400       .  S
O539        H576   0.964       .  S
O540       Zr543   2.389       .  S
O540       Zr559   2.384       .  S
Zr541       O566   2.441       .  S
Zr541       O560   2.443       .  S
Zr541       O568   2.456       .  S
Zr541       O556   2.436       .  S
Zr541       O547   2.391       .  S
Zr541       O548   2.419       .  S
Zr541       O549   2.381       .  S
Zr541       O550   2.385       .  S
Zr542       O561   2.436       .  S
Zr542       O554   2.435       .  S
Zr542       O555   2.435       .  S
Zr542       O548   2.400       .  S
Zr542       O549   2.392       .  S
Zr543       O545   2.437       .  S
Zr543       O567   2.435       .  S
Zr543       O569   2.442       .  S
Zr543       O547   2.384       .  S
Zr543       O550   2.397       .  S
Zr544       O570   2.435       .  S
Zr544       O571   2.437       .  S
Zr544       O546   2.437       .  S
Zr544       O547   2.386       .  S
Zr544       O548   2.409       .  S
O545        H582   0.990       .  S
O546        H577   0.990   1_455  S
O546        H591   0.990       .  S
O548        H574   0.966       .  S
O549       Zr559   2.376       .  S
O550       Zr559   2.396       .  S
O550        H575   0.963       .  S
C551        C873   1.475   1_455  S
C552       C1064   1.475       .  S
C553        C853   1.480       .  S
O554        H590   0.990       .  S
O555        C557   1.285       .  A
O556        C557   1.283       .  A
C557       C1044   1.481       .  S
O558       Zr559   2.440       .  S
O558        H587   0.990       .  S
Zr559       O562   2.438       .  S
Zr559       O563   2.439       .  S
Zr559       O564   2.403       .  S
O560        C565   1.284       .  A
O561        H578   0.990       .  S
O561        H593   0.990       .  S
O562        H579   0.990       .  S
O563        H583   0.990       .  S
O563        H592   0.990       .  S
O564        C565   1.278       .  A
C565        C893   1.470       .  S
O566        H585   0.990       .  S
O566        H589   0.990       .  S
O567        H581   0.990       .  S
O567        H588   0.990       .  S
O568        C572   1.288       .  A
O569        C572   1.286       .  A
O570        H580   0.990       .  S
O571        H584   0.990       .  S
C572       C1284   1.488       .  S
Zr595       O596   2.442       .  S
Zr595       O597   2.424       .  S
Zr595       O598   2.433       .  S
Zr595       O601   2.441       .  S
Zr595       O603   2.380       .  S
Zr595       O604   2.380       .  S
Zr595       O605   2.405       .  S
Zr595       O606   2.389       .  S
O596        H652   0.990       .  S
O596        H660   0.990       .  S
O597        C617   1.283       .  A
O598        C619   1.285       .  A
O599       Zr609   2.432       .  S
O599        C618   1.284       .  A
O600       Zr608   2.433       .  S
O600        C619   1.284       .  A
O601        C618   1.288       .  A
O602       Zr610   2.438       .  S
O602        C617   1.285       .  A
O603       Zr608   2.393       .  S
O603       Zr610   2.365       .  S
O604       Zr609   2.393       .  S
O604       Zr610   2.382       .  S
O604        H639   0.966       .  S
O605       Zr608   2.403       .  S
O605       Zr625   2.392       .  S
O605        H642   0.964       .  S
O606       Zr609   2.388       .  S
O606       Zr625   2.381       .  S
Zr607       O632   2.442       .  S
Zr607       O626   2.449       .  S
Zr607       O634   2.447       .  S
Zr607       O622   2.434       .  S
Zr607       O613   2.391       .  S
Zr607       O614   2.416       .  S
Zr607       O615   2.376       .  S
Zr607       O616   2.384       .  S
Zr608       O627   2.435       .  S
Zr608       O620   2.436       .  S
Zr608       O621   2.440       .  S
Zr608       O614   2.398       .  S
Zr608       O615   2.389       .  S
Zr609       O611   2.436       .  S
Zr609       O633   2.437       .  S
Zr609       O635   2.433       .  S
Zr609       O613   2.380       .  S
Zr609       O616   2.397       .  S
Zr610       O636   2.436       .  S
Zr610       O637   2.436       .  S
Zr610       O612   2.437       .  S
Zr610       O613   2.385       .  S
Zr610       O614   2.411       .  S
O611        H648   0.990       .  S
O612        H643   0.990   1_655  S
O612        H657   0.990       .  S
O614        H640   0.964       .  S
O615       Zr625   2.376       .  S
O616       Zr625   2.397       .  S
O616        H641   0.965       .  S
C617        C933   1.482   1_655  S
C618        C813   1.490       .  S
C619        C864   1.487       .  S
O620        H656   0.990       .  S
O621        C623   1.285       .  A
O622        C623   1.283       .  A
C623        C833   1.484       .  S
O624       Zr625   2.440       .  S
O624        H653   0.990       .  S
Zr625       O628   2.437       .  S
Zr625       O629   2.437       .  S
Zr625       O630   2.404       .  S
O626        C631   1.285       .  A
O627        H644   0.990       .  S
O627        H659   0.990       .  S
O628        H645   0.990       .  S
O629        H649   0.990       .  S
O629        H658   0.990       .  S
O630        C631   1.279       .  A
C631        C913   1.472       .  S
O632        H651   0.990       .  S
O632        H655   0.990       .  S
O633        H647   0.989       .  S
O633        H654   0.990       .  S
O634        C638   1.287       .  A
O635        C638   1.283       .  A
O636        H646   0.990       .  S
O637        H650   0.990       .  S
C638       C1293   1.495       .  S
Zr661       O662   2.438       .  S
Zr661       O663   2.406       .  S
Zr661       O664   2.437       .  S
Zr661       O667   2.427       .  S
Zr661       O669   2.381       .  S
Zr661       O670   2.383       .  S
Zr661       O671   2.396       .  S
Zr661       O672   2.392       .  S
O662        H718   0.990       .  S
O662        H726   0.990       .  S
O663        C683   1.279       .  A
O664        C685   1.286       .  A
O665       Zr675   2.429       .  S
O665        C684   1.285       .  A
O666       Zr674   2.443       .  S
O666        C685   1.286       .  A
O667        C684   1.284       .  A
O668       Zr676   2.444       .  S
O668        C683   1.286       .  A
O669       Zr674   2.388       .  S
O669       Zr676   2.368       .  S
O670       Zr675   2.385       .  S
O670       Zr676   2.371       .  S
O670        H705   0.975       .  S
O671       Zr674   2.398       .  S
O671       Zr691   2.388       .  S
O671        H708   0.966       .  S
O672       Zr675   2.392       .  S
O672       Zr691   2.380       .  S
Zr673       O698   2.443       .  S
Zr673       O692   2.461       .  S
Zr673       O700   2.447       .  S
Zr673       O688   2.436       .  S
Zr673       O679   2.399       .  S
Zr673       O680   2.421       .  S
Zr673       O681   2.380       .  S
Zr673       O682   2.381       .  S
Zr674       O693   2.436       .  S
Zr674       O686   2.436       .  S
Zr674       O687   2.432       .  S
Zr674       O680   2.398       .  S
Zr674       O681   2.397       .  S
Zr675       O677   2.435       .  S
Zr675       O699   2.440       .  S
Zr675       O701   2.439       .  S
Zr675       O679   2.381       .  S
Zr675       O682   2.391       .  S
Zr676       O702   2.431       .  S
Zr676       O703   2.435       .  S
Zr676       O678   2.436       .  S
Zr676       O679   2.390       .  S
Zr676       O680   2.411       .  S
O677        H714   0.990       .  S
O678        H709   0.990       .  S
O678        H723   0.990       .  S
O680        H706   0.968       .  S
O681       Zr691   2.381       .  S
O682       Zr691   2.395       .  S
O682        H707   0.967       .  S
C683        C993   1.472   1_565  S
C684        C884   1.479       .  S
C685        C793   1.491       .  S
O686        H722   0.990       .  S
O687        C689   1.283       .  A
O688        C689   1.284       .  A
C689        C904   1.491       .  S
O690       Zr691   2.440       .  S
O690        H719   0.990       .  S
Zr691       O694   2.436       .  S
Zr691       O695   2.439       .  S
Zr691       O696   2.391       .  S
O692        C697   1.287       .  A
O693        H710   0.990       .  S
O693        H725   0.990       .  S
O694        H711   0.990       .  S
O695        H715   0.990       .  S
O695        H724   0.990       .  S
O696        C697   1.277       .  A
C697       C1024   1.483       .  S
O698        H717   0.991       .  S
O698        H721   0.990       .  S
O699        H713   0.990       .  S
O699        H720   0.990       .  S
O700        C704   1.286       .  A
O701        C704   1.286       .  A
O702        H712   0.990       .  S
O703        H716   0.990       .  S
C704       C1393   1.481       .  S
Zr727       O728   2.436       .  S
Zr727       O729   2.428       .  S
Zr727       O730   2.442       .  S
Zr727       O733   2.436       .  S
Zr727       O735   2.381       .  S
Zr727       O736   2.385       .  S
Zr727       O737   2.403       .  S
Zr727       O738   2.394       .  S
O728        H784   0.990       .  S
O728        H792   0.990       .  S
O729        C749   1.285       .  A
O730        C751   1.286       .  A
O731       Zr741   2.427       .  S
O731        C750   1.285       .  A
O732       Zr740   2.434       .  S
O732        C751   1.286       .  A
O733        C750   1.285       .  A
O734       Zr742   2.436       .  S
O734        C749   1.284       .  A
O735       Zr740   2.390       .  S
O735       Zr742   2.368       .  S
O736       Zr741   2.392       .  S
O736       Zr742   2.379       .  S
O736        H771   0.966       .  S
O737       Zr740   2.399       .  S
O737       Zr757   2.400       .  S
O737        H774   0.964       .  S
O738       Zr741   2.388       .  S
O738       Zr757   2.385       .  S
Zr739       O764   2.444       .  S
Zr739       O758   2.442       .  S
Zr739       O766   2.426       .  S
Zr739       O754   2.407       .  S
Zr739       O745   2.395       .  S
Zr739       O746   2.414       .  S
Zr739       O747   2.375       .  S
Zr739       O748   2.377       .  S
Zr740       O759   2.434       .  S
Zr740       O752   2.435       .  S
Zr740       O753   2.443       .  S
Zr740       O746   2.400       .  S
Zr740       O747   2.394       .  S
Zr741       O743   2.434       .  S
Zr741       O765   2.440       .  S
Zr741       O767   2.435       .  S
Zr741       O745   2.382       .  S
Zr741       O748   2.395       .  S
Zr742       O768   2.434       .  S
Zr742       O769   2.436       .  S
Zr742       O744   2.438       .  S
Zr742       O745   2.390       .  S
Zr742       O746   2.405       .  S
O743        H780   0.990       .  S
O744        H775   0.990   1_545  S
O744        H789   0.990       .  S
O746        H772   0.968       .  S
O747       Zr757   2.378       .  S
O748       Zr757   2.392       .  S
O748        H773   0.966       .  S
C749        C824   1.489   1_545  S
C750        C984   1.486       .  S
C751        C804   1.487       .  S
O752        H788   0.990       .  S
O753        C755   1.285       .  A
O754        C755   1.278       .  A
C755        C953   1.484       .  S
O756       Zr757   2.439       .  S
O756        H785   0.990       .  S
Zr757       O760   2.436       .  S
Zr757       O761   2.438       .  S
Zr757       O762   2.414       .  S
O758        C763   1.284       .  A
O759        H776   0.990       .  S
O759        H791   0.990       .  S
O760        H777   0.990       .  S
O761        H781   0.990       .  S
O761        H790   0.989       .  S
O762        C763   1.280       .  A
C763        C844   1.476       .  S
O764        H783   0.990       .  S
O764        H787   0.990       .  S
O765        H779   0.990       .  S
O765        H786   0.990       .  S
O766        C770   1.282       .  A
O767        C770   1.285       .  A
O768        H778   0.990       .  S
O769        H782   0.990       .  S
C770       C1104   1.476       .  S
C793        C794   1.416       .  A
C793        C798   1.409       .  A
C794        C795   1.402       .  A
C794       Br810   1.920       .  S
C795        C796   1.403       .  A
C795        H799   1.084   1_565  S
C796        C800   1.487   1_564  S
C796        C797   1.408       .  A
C797        C798   1.401       .  A
C797       Br809   1.919   1_554  S
C798        H801   1.083       .  S
C800        C802   1.404       .  A
C800        C806   1.408       .  A
C802        C803   1.403       .  A
C802        H807   1.084   1_556  S
C803        C804   1.415       .  A
C803       Br811   1.917       .  S
C804        C805   1.406       .  A
C805        C806   1.399       .  A
C805        H808   1.084       .  S
C806       Br812   1.918   1_545  S
C813        C814   1.419       .  A
C813        C818   1.409       .  A
C814        C815   1.398       .  A
C814       Br830   1.917       .  S
C815        C816   1.399       .  A
C815        H819   1.084       .  S
C816        C820   1.478       .  S
C816        C817   1.406       .  A
C817        C818   1.399       .  A
C817       Br829   1.918       .  S
C818        H821   1.083       .  S
C820        C822   1.401       .  A
C820        C826   1.406       .  A
C822        C823   1.400       .  A
C822        H827   1.084       .  S
C823        C824   1.416       .  A
C823       Br831   1.919       .  S
C824        C825   1.408       .  A
C825        C826   1.398       .  A
C825        H828   1.081   1_565  S
C826       Br832   1.921       .  S
C833        C834   1.413       .  A
C833        C838   1.406       .  A
C834        C835   1.399       .  A
C834       Br850   1.919       .  S
C835        C836   1.401       .  A
C835        H839   1.084       .  S
C836        C840   1.483       .  S
C836        C837   1.410       .  A
C837        C838   1.403       .  A
C837       Br849   1.919       .  S
C838        H841   1.083       .  S
C840        C842   1.403       .  A
C840        C846   1.411       .  A
C842        C843   1.398       .  A
C842        H847   1.084       .  S
C843        C844   1.409       .  A
C843       Br851   1.918       .  S
C844        C845   1.405       .  A
C845        C846   1.402       .  A
C845        H848   1.084       .  S
C846       Br852   1.919       .  S
C853        C854   1.413       .  A
C853        C858   1.405       .  A
C854        C855   1.400       .  A
C854       Br870   1.916       .  S
C855        C856   1.402       .  A
C855        H859   1.084   1_554  S
C856        C860   1.481   1_454  S
C856        C857   1.409       .  A
C857        C858   1.399       .  A
C857       Br869   1.920   1_455  S
C858        H861   1.084       .  S
C860        C862   1.401       .  A
C860        C866   1.407       .  A
C862        C863   1.398       .  A
C862        H867   1.084   1_655  S
C863        C864   1.416       .  A
C863       Br871   1.920       .  S
C864        C865   1.409       .  A
C865        C866   1.400       .  A
C865        H868   1.083       .  S
C866       Br872   1.920       .  S
C873        C874   1.411       .  A
C873        C878   1.406       .  A
C874        C875   1.394       .  A
C874       Br890   1.919       .  S
C875        C876   1.399       .  A
C875        H879   1.084       .  S
C876        C880   1.476       .  S
C876        C877   1.408       .  A
C877        C878   1.403       .  A
C877       Br889   1.919       .  S
C878        H881   1.084       .  S
C880        C882   1.402       .  A
C880        C886   1.406       .  A
C882        C883   1.401       .  A
C882        H887   1.084       .  S
C883        C884   1.414       .  A
C883       Br891   1.922       .  S
C884        C885   1.406       .  A
C885        C886   1.395       .  A
C885        H888   1.084       .  S
C886       Br892   1.920       .  S
C893        C894   1.410       .  A
C893        C898   1.402       .  A
C894        C895   1.396       .  A
C894       Br910   1.922       .  S
C895        C896   1.401       .  A
C895        H899   1.084       .  S
C896        C900   1.477       .  S
C896        C897   1.409       .  A
C897        C898   1.400       .  A
C897       Br909   1.918       .  S
C898        H901   1.084       .  S
C900        C902   1.400       .  A
C900        C906   1.404       .  A
C902        C903   1.400       .  A
C902        H907   1.084       .  S
C903        C904   1.418       .  A
C903       Br911   1.920       .  S
C904        C905   1.410       .  A
C905        C906   1.398       .  A
C905        H908   1.082       .  S
C906       Br912   1.920       .  S
C913        C914   1.409       .  A
C913        C918   1.405       .  A
C914        C915   1.394       .  A
C914       Br930   1.918       .  S
C915        C916   1.400       .  A
C915        H919   1.084       .  S
C916        C920   1.474       .  S
C916        C917   1.409       .  A
C917        C918   1.401       .  A
C917       Br929   1.920       .  S
C918        H921   1.084       .  S
C920        C922   1.400       .  A
C920        C926   1.408       .  A
C922        C923   1.396       .  A
C922        H927   1.084       .  S
C923        C924   1.411       .  A
C923       Br931   1.919       .  S
C924        C925   1.404       .  A
C925        C926   1.399       .  A
C925        H928   1.084       .  S
C926       Br932   1.919       .  S
C933        C934   1.413       .  A
C933        C938   1.407       .  A
C934        C935   1.399       .  A
C934       Br950   1.919       .  S
C935        C936   1.403       .  A
C935        H939   1.084       .  S
C936        C940   1.484       .  S
C936        C937   1.408       .  A
C937        C938   1.400       .  A
C937       Br949   1.918       .  S
C938        H941   1.084       .  S
C940        C942   1.404       .  A
C940        C946   1.408       .  A
C942        C943   1.402   1_565  A
C942        H947   1.083       .  S
C943        C944   1.415       .  A
C943       Br951   1.922       .  S
C944        C945   1.407   1_545  A
C945        C946   1.398       .  A
C945        H948   1.084       .  S
C946       Br952   1.920       .  S
C953        C954   1.414       .  A
C953        C958   1.411       .  A
C954        C955   1.400       .  A
C954       Br970   1.919       .  S
C955        C956   1.403       .  A
C955        H959   1.084       .  S
C956        C960   1.473       .  S
C956        C957   1.401       .  A
C957        C958   1.393       .  A
C957       Br969   1.920       .  S
C958        H961   1.083       .  S
C960        C962   1.403       .  A
C960        C966   1.403       .  A
C962        C963   1.402       .  A
C962        H967   1.084       .  S
C963        C964   1.415       .  A
C963       Br971   1.921       .  S
C964        C965   1.406       .  A
C965        C966   1.392       .  A
C965        H968   1.084       .  S
C966       Br972   1.920       .  S
C973        C974   1.410       .  A
C973        C978   1.402       .  A
C974        C975   1.397       .  A
C974       Br990   1.920       .  S
C975        C976   1.401       .  A
C975        H979   1.084       .  S
C976        C980   1.475       .  S
C976        C977   1.407       .  A
C977        C978   1.399       .  A
C977       Br989   1.918       .  S
C978        H981   1.082       .  S
C980        C982   1.400       .  A
C980        C986   1.404       .  A
C982        C983   1.399   1_455  A
C982        H987   1.084       .  S
C983        C984   1.416       .  A
C983       Br991   1.918       .  S
C984        C985   1.409   1_655  A
C985        C986   1.397       .  A
C985        H988   1.083       .  S
C986       Br992   1.919       .  S
C993        C994   1.409       .  A
C993        C998   1.405       .  A
C994        C995   1.396       .  A
C994      Br1010   1.918   1_545  S
C995        C996   1.402       .  A
C995        H999   1.084       .  S
C996       C1000   1.474       .  S
C996        C997   1.407       .  A
C997        C998   1.398       .  A
C997      Br1009   1.919       .  S
C998       H1001   1.084       .  S
C1000      C1002   1.401       .  A
C1000      C1006   1.405       .  A
C1002      C1003   1.400   1_655  A
C1002      H1007   1.084       .  S
C1003      C1004   1.417       .  A
C1003     Br1011   1.917       .  S
C1004      C1005   1.409   1_455  A
C1005      C1006   1.393       .  A
C1005      H1008   1.083       .  S
C1006     Br1012   1.921       .  S
C1013      C1014   1.416       .  A
C1013      C1018   1.409       .  A
C1014      C1015   1.398       .  A
C1014     Br1030   1.921       .  S
C1015      C1016   1.401       .  A
C1015      H1019   1.084       .  S
C1016      C1020   1.478       .  S
C1016      C1017   1.405       .  A
C1017      C1018   1.397       .  A
C1017     Br1029   1.919       .  S
C1018      H1021   1.083       .  S
C1020      C1022   1.402       .  A
C1020      C1026   1.406       .  A
C1022      C1023   1.399       .  A
C1022      H1027   1.084       .  S
C1023      C1024   1.412       .  A
C1023     Br1031   1.916       .  S
C1024      C1025   1.409       .  A
C1025      C1026   1.396       .  A
C1025      H1028   1.084       .  S
C1026     Br1032   1.921       .  S
C1033      C1034   1.411       .  A
C1033      C1038   1.408       .  A
C1034      C1035   1.402       .  A
C1034     Br1050   1.919       .  S
C1035      C1036   1.403       .  A
C1035      H1039   1.083       .  S
C1036      C1040   1.478       .  S
C1036      C1037   1.405       .  A
C1037      C1038   1.397       .  A
C1037     Br1049   1.920       .  S
C1038      H1041   1.084       .  S
C1040      C1042   1.399       .  A
C1040      C1046   1.409       .  A
C1042      C1043   1.398       .  A
C1042      H1047   1.084       .  S
C1043      C1044   1.414       .  A
C1043     Br1051   1.920       .  S
C1044      C1045   1.405       .  A
C1045      C1046   1.401       .  A
C1045      H1048   1.083       .  S
C1046     Br1052   1.919       .  S
C1053      C1054   1.417       .  A
C1053      C1058   1.409       .  A
C1054      C1055   1.403       .  A
C1054     Br1070   1.920       .  S
C1055      C1056   1.402       .  A
C1055      H1059   1.083       .  S
C1056      C1060   1.474       .  S
C1056      C1057   1.402       .  A
C1057      C1058   1.394       .  A
C1057     Br1069   1.919       .  S
C1058      H1061   1.080       .  S
C1060      C1062   1.401       .  A
C1060      C1066   1.406       .  A
C1062      C1063   1.399   1_545  A
C1062      H1067   1.084       .  S
C1063      C1064   1.410       .  A
C1063     Br1071   1.916       .  S
C1064      C1065   1.405       .  A
C1065      C1066   1.398   1_565  A
C1065      H1068   1.084       .  S
C1066     Br1072   1.918       .  S
C1073      C1074   1.412       .  A
C1073      C1078   1.404       .  A
C1074      C1075   1.400       .  A
C1074     Br1090   1.921       .  S
C1075      C1076   1.403       .  A
C1075      H1079   1.084       .  S
C1076      C1080   1.476   1_554  S
C1076      C1077   1.406       .  A
C1077      C1078   1.397       .  A
C1077     Br1089   1.918   1_554  S
C1078      H1081   1.084       .  S
C1080      C1082   1.397       .  A
C1080      C1086   1.405       .  A
C1082      C1083   1.398       .  A
C1082      H1087   1.084       .  S
C1083      C1084   1.421       .  A
C1083     Br1091   1.920       .  S
C1084      C1085   1.412       .  A
C1085      C1086   1.401       .  A
C1085      H1088   1.083       .  S
C1086     Br1092   1.920       .  S
C1093      C1094   1.417       .  A
C1093      C1098   1.408       .  A
C1094      C1095   1.400       .  A
C1094     Br1110   1.919       .  S
C1095      C1096   1.401       .  A
C1095      H1099   1.084       .  S
C1096      C1100   1.478       .  S
C1096      C1097   1.406       .  A
C1097      C1098   1.397       .  A
C1097     Br1109   1.920       .  S
C1098      H1101   1.083       .  S
C1100      C1102   1.399       .  A
C1100      C1106   1.409       .  A
C1102      C1103   1.396       .  A
C1102      H1107   1.084       .  S
C1103      C1104   1.414       .  A
C1103     Br1111   1.920       .  S
C1104      C1105   1.404       .  A
C1105      C1106   1.400       .  A
C1105      H1108   1.083       .  S
C1106     Br1112   1.919       .  S
C1113      C1114   1.416       .  A
C1113      C1118   1.407       .  A
C1114      C1115   1.397       .  A
C1114     Br1130   1.919       .  S
C1115      C1116   1.400       .  A
C1115      H1119   1.084   1_655  S
C1116      C1120   1.478   1_655  S
C1116      C1117   1.407       .  A
C1117      C1118   1.400       .  A
C1117     Br1129   1.919       .  S
C1118      H1121   1.083       .  S
C1120      C1122   1.401       .  A
C1120      C1126   1.408       .  A
C1122      C1123   1.399       .  A
C1122      H1127   1.084       .  S
C1123      C1124   1.413       .  A
C1123     Br1131   1.916       .  S
C1124      C1125   1.405       .  A
C1125      C1126   1.397       .  A
C1125      H1128   1.084       .  S
C1126     Br1132   1.919   1_455  S
C1133      C1134   1.410       .  A
C1133      C1138   1.403       .  A
C1134      C1135   1.404       .  A
C1134     Br1150   1.919       .  S
C1135      C1136   1.406       .  A
C1135      H1139   1.083       .  S
C1136      C1140   1.482       .  S
C1136      C1137   1.409       .  A
C1137      C1138   1.393       .  A
C1137     Br1149   1.923       .  S
C1138      H1141   1.084       .  S
C1140      C1142   1.401       .  A
C1140      C1146   1.411       .  A
C1142      C1143   1.392       .  A
C1142      H1147   1.084       .  S
C1143      C1144   1.410       .  A
C1143     Br1151   1.917       .  S
C1144      C1145   1.405       .  A
C1145      C1146   1.404       .  A
C1145      H1148   1.083       .  S
C1146     Br1152   1.918       .  S
C1153      C1154   1.415       .  A
C1153      C1158   1.407       .  A
C1154      C1155   1.405       .  A
C1154     Br1170   1.919       .  S
C1155      C1156   1.404       .  A
C1155      H1159   1.083       .  S
C1156      C1160   1.487       .  S
C1156      C1157   1.408       .  A
C1157      C1158   1.400       .  A
C1157     Br1169   1.919       .  S
C1158      H1161   1.083       .  S
C1160      C1162   1.401       .  A
C1160      C1166   1.411       .  A
C1162      C1163   1.402       .  A
C1162      H1167   1.084       .  S
C1163      C1164   1.415       .  A
C1163     Br1171   1.918       .  S
C1164      C1165   1.404       .  A
C1165      C1166   1.404       .  A
C1165      H1168   1.083       .  S
C1166     Br1172   1.918       .  S
C1173      C1174   1.413       .  A
C1173      C1178   1.403       .  A
C1174      C1175   1.396       .  A
C1174     Br1190   1.917       .  S
C1175      C1176   1.397       .  A
C1175      H1179   1.084       .  S
C1176      C1180   1.472       .  S
C1176      C1177   1.408       .  A
C1177      C1178   1.400       .  A
C1177     Br1189   1.918       .  S
C1178      H1181   1.083       .  S
C1180      C1182   1.404       .  A
C1180      C1186   1.404       .  A
C1182      C1183   1.402       .  A
C1182      H1187   1.083       .  S
C1183      C1184   1.409       .  A
C1183     Br1191   1.917       .  S
C1184      C1185   1.404       .  A
C1185      C1186   1.394       .  A
C1185      H1188   1.084       .  S
C1186     Br1192   1.919       .  S
C1193      C1194   1.412       .  A
C1193      C1198   1.404       .  A
C1194      C1195   1.399       .  A
C1194     Br1210   1.921       .  S
C1195      C1196   1.401       .  A
C1195      H1199   1.084       .  S
C1196      C1200   1.473       .  S
C1196      C1197   1.406       .  A
C1197      C1198   1.399       .  A
C1197     Br1209   1.919       .  S
C1198      H1201   1.084       .  S
C1200      C1202   1.399       .  A
C1200      C1206   1.406       .  A
C1202      C1203   1.396       .  A
C1202      H1207   1.084       .  S
C1203      C1204   1.413       .  A
C1203     Br1211   1.920       .  S
C1204      C1205   1.406       .  A
C1205      C1206   1.400       .  A
C1205      H1208   1.084       .  S
C1206     Br1212   1.917       .  S
C1213      C1214   1.413       .  A
C1213      C1218   1.407       .  A
C1214      C1215   1.401       .  A
C1214     Br1230   1.916       .  S
C1215      C1216   1.403       .  A
C1215      H1219   1.084       .  S
C1216      C1220   1.484   1_565  S
C1216      C1217   1.408       .  A
C1217      C1218   1.400       .  A
C1217     Br1229   1.919   1_565  S
C1218      H1221   1.084       .  S
C1220      C1222   1.403   1_545  A
C1220      C1226   1.407       .  A
C1222      C1223   1.402   1_565  A
C1222      H1227   1.084       .  S
C1223      C1224   1.416       .  A
C1223     Br1231   1.919       .  S
C1224      C1225   1.408       .  A
C1225      C1226   1.399       .  A
C1225      H1228   1.083       .  S
C1226     Br1232   1.920       .  S
C1233      C1234   1.412   1_565  A
C1233      C1238   1.402   1_565  A
C1234      C1235   1.396       .  A
C1234     Br1250   1.921   1_545  S
C1235      C1236   1.400       .  A
C1235      H1239   1.084       .  S
C1236      C1240   1.473       .  S
C1236      C1237   1.407       .  A
C1237      C1238   1.399       .  A
C1237     Br1249   1.917       .  S
C1238      H1241   1.084       .  S
C1240      C1242   1.401       .  A
C1240      C1246   1.404       .  A
C1242      C1243   1.400       .  A
C1242      H1247   1.084       .  S
C1243      C1244   1.415       .  A
C1243     Br1251   1.923       .  S
C1244      C1245   1.406       .  A
C1245      C1246   1.396       .  A
C1245      H1248   1.083       .  S
C1246     Br1252   1.918       .  S
C1253      C1254   1.418       .  A
C1253      C1258   1.414       .  A
C1254      C1255   1.402       .  A
C1254     Br1270   1.920       .  S
C1255      C1256   1.402       .  A
C1255      H1259   1.084       .  S
C1256      C1260   1.477       .  S
C1256      C1257   1.402       .  A
C1257      C1258   1.394       .  A
C1257     Br1269   1.921       .  S
C1258      H1261   1.083       .  S
C1260      C1262   1.403       .  A
C1260      C1266   1.408       .  A
C1262      C1263   1.398       .  A
C1262      H1267   1.084       .  S
C1263      C1264   1.409       .  A
C1263     Br1271   1.921       .  S
C1264      C1265   1.403       .  A
C1265      C1266   1.397       .  A
C1265      H1268   1.084       .  S
C1266     Br1272   1.918       .  S
C1273      C1274   1.422       .  A
C1273      C1278   1.413       .  A
C1274      C1275   1.403       .  A
C1274     Br1290   1.913       .  S
C1275      C1276   1.398       .  A
C1275      H1279   1.084       .  S
C1276      C1280   1.484       .  S
C1276      C1277   1.404       .  A
C1277      C1278   1.402       .  A
C1277     Br1289   1.918       .  S
C1278      H1281   1.083       .  S
C1280      C1282   1.402       .  A
C1280      C1286   1.407       .  A
C1282      C1283   1.404       .  A
C1282      H1287   1.083       .  S
C1283      C1284   1.415       .  A
C1283     Br1291   1.919       .  S
C1284      C1285   1.406       .  A
C1285      C1286   1.403       .  A
C1285      H1288   1.083       .  S
C1286     Br1292   1.919       .  S
C1293      C1294   1.421       .  A
C1293      C1298   1.412       .  A
C1294      C1295   1.400       .  A
C1294     Br1310   1.921       .  S
C1295      C1296   1.399       .  A
C1295      H1299   1.084       .  S
C1296      C1300   1.477       .  S
C1296      C1297   1.403       .  A
C1297      C1298   1.398       .  A
C1297     Br1309   1.919       .  S
C1298      H1301   1.083       .  S
C1300      C1302   1.404       .  A
C1300      C1306   1.405       .  A
C1302      C1303   1.402       .  A
C1302      H1307   1.083       .  S
C1303      C1304   1.412       .  A
C1303     Br1311   1.918       .  S
C1304      C1305   1.407       .  A
C1305      C1306   1.395       .  A
C1305      H1308   1.084       .  S
C1306     Br1312   1.919       .  S
C1313      C1314   1.411       .  A
C1313      C1318   1.402       .  A
C1314      C1315   1.398       .  A
C1314     Br1330   1.921       .  S
C1315      C1316   1.401       .  A
C1315      H1319   1.083       .  S
C1316      C1320   1.478       .  S
C1316      C1317   1.410       .  A
C1317      C1318   1.399       .  A
C1317     Br1329   1.919       .  S
C1318      H1321   1.084       .  S
C1320      C1322   1.397       .  A
C1320      C1326   1.406       .  A
C1322      C1323   1.397       .  A
C1322      H1327   1.084       .  S
C1323      C1324   1.420       .  A
C1323     Br1331   1.920       .  S
C1324      C1325   1.409       .  A
C1325      C1326   1.402       .  A
C1325      H1328   1.082       .  S
C1326     Br1332   1.919       .  S
C1333      C1334   1.418       .  A
C1333      C1338   1.406       .  A
C1334      C1335   1.396       .  A
C1334     Br1350   1.922       .  S
C1335      C1336   1.400       .  A
C1335      H1339   1.084       .  S
C1336      C1340   1.475       .  S
C1336      C1337   1.407       .  A
C1337      C1338   1.398       .  A
C1337     Br1349   1.919       .  S
C1338      H1341   1.083   1_455  S
C1340      C1342   1.402       .  A
C1340      C1346   1.409       .  A
C1342      C1343   1.398       .  A
C1342      H1347   1.083       .  S
C1343      C1344   1.412       .  A
C1343     Br1351   1.921       .  S
C1344      C1345   1.402       .  A
C1345      C1346   1.395       .  A
C1345      H1348   1.084       .  S
C1346     Br1352   1.920       .  S
C1353      C1354   1.412       .  A
C1353      C1358   1.404       .  A
C1354      C1355   1.393       .  A
C1354     Br1370   1.918       .  S
C1355      C1356   1.398       .  A
C1355      H1359   1.084       .  S
C1356      C1360   1.466       .  S
C1356      C1357   1.406       .  A
C1357      C1358   1.395       .  A
C1357     Br1369   1.919       .  S
C1358      H1361   1.084       .  S
C1360      C1362   1.396       .  A
C1360      C1366   1.403       .  A
C1362      C1363   1.394       .  A
C1362      H1367   1.084       .  S
C1363      C1364   1.421       .  A
C1363     Br1371   1.923       .  S
C1364      C1365   1.407       .  A
C1365      C1366   1.395       .  A
C1365      H1368   1.083       .  S
C1366     Br1372   1.919       .  S
C1373      C1374   1.408       .  A
C1373      C1378   1.402       .  A
C1374      C1375   1.398       .  A
C1374     Br1390   1.921       .  S
C1375      C1376   1.402       .  A
C1375      H1379   1.083       .  S
C1376      C1380   1.471       .  S
C1376      C1377   1.406       .  A
C1377      C1378   1.395       .  A
C1377     Br1389   1.918       .  S
C1378      H1381   1.084       .  S
C1380      C1382   1.399       .  A
C1380      C1386   1.404       .  A
C1382      C1383   1.396       .  A
C1382      H1387   1.084       .  S
C1383      C1384   1.416   1_565  A
C1383     Br1391   1.920       .  S
C1384      C1385   1.408       .  A
C1385      C1386   1.398   1_545  A
C1385      H1388   1.083       .  S
C1386     Br1392   1.919       .  S
C1393      C1394   1.411       .  A
C1393      C1398   1.405       .  A
C1394      C1395   1.397       .  A
C1394     Br1410   1.917       .  S
C1395      C1396   1.402       .  A
C1395      H1399   1.084       .  S
C1396      C1400   1.488       .  S
C1396      C1397   1.413       .  A
C1397      C1398   1.405       .  A
C1397     Br1409   1.919       .  S
C1398      H1401   1.083       .  S
C1400      C1402   1.408       .  A
C1400      C1406   1.412       .  A
C1402      C1403   1.404       .  A
C1402      H1407   1.083       .  S
C1403      C1404   1.408       .  A
C1403     Br1411   1.918       .  S
C1404      C1405   1.402       .  A
C1405      C1406   1.395       .  A
C1405      H1408   1.084       .  S
C1406     Br1412   1.921       .  S
C1413      C1414   1.421       .  A
C1413      C1418   1.411       .  A
C1414      C1415   1.403       .  A
C1414     Br1430   1.922       .  S
C1415      C1416   1.402       .  A
C1415      H1419   1.084       .  S
C1416      C1420   1.484       .  S
C1416      C1417   1.406       .  A
C1417      C1418   1.397       .  A
C1417     Br1429   1.920       .  S
C1418      H1421   1.083       .  S
C1420      C1422   1.405       .  A
C1420      C1426   1.410       .  A
C1422      C1423   1.400       .  A
C1422      H1427   1.083       .  S
C1423      C1424   1.407       .  A
C1423     Br1431   1.918       .  S
C1424      C1425   1.403       .  A
C1425      C1426   1.399       .  A
C1425      H1428   1.084       .  S
C1426     Br1432   1.919       .  S
C1433      C1434   1.413       .  A
C1433      C1438   1.405       .  A
C1434      C1435   1.395   1_565  A
C1434     Br1450   1.921       .  S
C1435      C1436   1.400       .  A
C1435      H1439   1.084       .  S
C1436      C1440   1.480       .  S
C1436      C1437   1.410       .  A
C1437      C1438   1.402   1_545  A
C1437     Br1449   1.919       .  S
C1438      H1441   1.084       .  S
C1440      C1442   1.402       .  A
C1440      C1446   1.408       .  A
C1442      C1443   1.400       .  A
C1442      H1447   1.084       .  S
C1443      C1444   1.415       .  A
C1443     Br1451   1.922       .  S
C1444      C1445   1.406       .  A
C1445      C1446   1.396       .  A
C1445      H1448   1.084       .  S
C1446     Br1452   1.920       .  S
C1453      C1454   1.411       .  A
C1453      C1458   1.405       .  A
C1454      C1455   1.404       .  A
C1454     Br1470   1.918       .  S
C1455      C1456   1.404       .  A
C1455      H1459   1.083       .  S
C1456      C1460   1.478       .  S
C1456      C1457   1.405       .  A
C1457      C1458   1.397       .  A
C1457     Br1469   1.918       .  S
C1458      H1461   1.084       .  S
C1460      C1462   1.404       .  A
C1460      C1466   1.401       .  A
C1462      C1463   1.406       .  A
C1462      H1467   1.083       .  S
C1463      C1464   1.417       .  A
C1463     Br1471   1.920       .  S
C1464      C1465   1.412       .  A
C1465      C1466   1.395       .  A
C1465      H1468   1.082       .  S
C1466     Br1472   1.919       .  S
C1473      C1474   1.423       .  A
C1473      C1478   1.412       .  A
C1474      C1475   1.400       .  A
C1474     Br1490   1.923       .  S
C1475      C1476   1.397       .  A
C1475      H1479   1.084       .  S
C1476      C1480   1.475       .  S
C1476      C1477   1.403       .  A
C1477      C1478   1.398       .  A
C1477     Br1489   1.919       .  S
C1478      H1481   1.083       .  S
C1480      C1482   1.402       .  A
C1480      C1486   1.407       .  A
C1482      C1483   1.399   1_655  A
C1482      H1487   1.083       .  S
C1483      C1484   1.408       .  A
C1483     Br1491   1.918       .  S
C1484      C1485   1.402   1_455  A
C1485      C1486   1.399       .  A
C1485      H1488   1.084       .  S
C1486     Br1492   1.918       .  S
C1493      C1494   1.417       .  A
C1493      C1498   1.408       .  A
C1494      C1495   1.399       .  A
C1494     Br1510   1.922       .  S
C1495      C1496   1.400       .  A
C1495      H1499   1.084       .  S
C1496      C1500   1.468       .  S
C1496      C1497   1.401       .  A
C1497      C1498   1.393       .  A
C1497     Br1509   1.919       .  S
C1498      H1501   1.083       .  S
C1500      C1502   1.402       .  A
C1500      C1506   1.404       .  A
C1502      C1503   1.398       .  A
C1502      H1507   1.084       .  S
C1503      C1504   1.409       .  A
C1503     Br1511   1.919       .  S
C1504      C1505   1.404       .  A
C1505      C1506   1.395       .  A
C1505      H1508   1.084       .  S
C1506     Br1512   1.919       .  S
