geometry optimzed in LAMMPS
_audit_creation_date              2020-12-01 
_audit_creation_method            'lammps2cif' 
_symmetry_space_group_name_H-M    'P1' 
_symmetry_Int_Tables_number       1 
_symmetry_cell_setting            triclinic 
loop_ 
_symmetry_equiv_pos_as_xyz 
  x,y,z 
_cell_length_a                    59.86315723 
_cell_length_b                    59.8339459822454 
_cell_length_c                    66.6690554499229 
_cell_angle_alpha                 89.90458157361715 
_cell_angle_beta                  89.90201744426784 
_cell_angle_gamma                 90.03059817202438 
loop_ 
_atom_site_label 
_atom_site_type_symbol 
_atom_site_fract_x 
_atom_site_fract_y 
_atom_site_fract_z 
_atom_site_charge 
O1          O  0.37894177  0.68501986  0.14970127    -0.85700
O2          O  0.38321911  0.72783811  0.13677810    -0.82700
C3          C  0.39215203  0.74612048  0.13205090     0.97800
O4          O  0.41107069  0.74637847  0.12345886    -0.82700
O5          O  0.44016551  0.73238885  0.15336160    -0.85400
C6          C  0.45023052  0.71964676  0.16541488     1.02300
O7          O  0.45177704  0.69901952  0.16163161    -0.78100
O8          O  0.40833667  0.68714658  0.16924898    -0.78300
C9          C  0.38752967  0.68516292  0.16708888     1.02300
O10         O  0.39415408  0.66942545  0.11108871    -0.85700
O11         O  0.39592165  0.71280890  0.09696749    -0.82700
C12         C  0.41406355  0.71470196  0.08720885     0.97800
O13         O  0.43253023  0.71573523  0.09626952    -0.82800
O14         O  0.46449775  0.70480012  0.12435764    -0.85400
C15         C  0.46696907  0.68373865  0.12261273     1.02300
O16         O  0.45107384  0.67082797  0.12702981    -0.78200
O17         O  0.40969444  0.65480887  0.13769661    -0.78300
C18         C  0.39930205  0.65246572  0.12132313     1.02300
Cr19       Cr  0.39024657  0.69899937  0.12413438     1.93700
Cr20       Cr  0.43577978  0.72320259  0.12488673     1.93200
Cr21       Cr  0.42938547  0.67950628  0.14767880     1.39100
O22         O  0.41842136  0.70053333  0.13202734    -1.23400
O23         O  0.41054959  0.68153637  0.81751947    -0.85700
O24         O  0.45369238  0.69022231  0.82877719    -0.82700
C25         C  0.45460876  0.71116650  0.82647348     0.97800
O26         O  0.44360320  0.72380446  0.83795634    -0.82700
O27         O  0.41218118  0.73739128  0.86658538    -0.85400
C28         C  0.39348464  0.73880165  0.85775448     1.02300
O29         O  0.38432964  0.72151466  0.85089569    -0.78100
O30         O  0.37926708  0.68008145  0.83471308    -0.78300
C31         C  0.38951942  0.68080434  0.81803666     1.02300
O32         O  0.40720810  0.64699610  0.84696778    -0.85700
O33         O  0.44868714  0.65986044  0.86142941    -0.82700
C34         C  0.46463829  0.67180870  0.86758970     0.97800
O35         O  0.46305680  0.69302192  0.86702509    -0.82800
O36         O  0.42937411  0.70408539  0.89345970    -0.85400
C37         C  0.41008069  0.70373285  0.90112342     1.02300
O38         O  0.39287522  0.70271881  0.89005882    -0.78200
O39         O  0.39027509  0.66065132  0.87324138    -0.78300
C40         C  0.39503492  0.64418215  0.86228672     1.02300
Cr41       Cr  0.42911570  0.67120629  0.83996685     1.93700
Cr42       Cr  0.43565067  0.71300516  0.86548296     1.93200
Cr43       Cr  0.38899365  0.69131637  0.86184817     1.39100
O44         O  0.41785191  0.69183357  0.85594271    -1.23400
O45         O  0.69179324  0.62063617  0.15671522    -0.85700
O46         O  0.73371562  0.61420666  0.14185706    -0.82700
C47         C  0.75104189  0.60483659  0.13534299     0.97800
O48         O  0.74961710  0.58594801  0.12679905    -0.82700
O49         O  0.73480689  0.55651904  0.15659747    -0.85400
C50         C  0.72182087  0.54684091  0.16875806     1.02300
O51         O  0.70105260  0.54640226  0.16539127    -0.78100
O52         O  0.69219411  0.58997942  0.17485072    -0.78300
C53         C  0.69186158  0.61099449  0.17372123     1.02300
O54         O  0.67395170  0.60801148  0.11785219    -0.85700
O55         O  0.71620518  0.60412345  0.10231138    -0.82700
C56         C  0.71641012  0.58636613  0.09186702     0.97800
O57         O  0.71662648  0.56744184  0.10025461    -0.82800
O58         O  0.70482101  0.53512724  0.12772911    -0.85400
C59         C  0.68363283  0.53406172  0.12619711     1.02300
O60         O  0.67182483  0.55044839  0.13154563    -0.78200
O61         O  0.65874801  0.59241998  0.14416644    -0.78300
C62         C  0.65689211  0.60383664  0.12825347     1.02300
Cr63       Cr  0.70396105  0.60954467  0.13014972     1.93700
Cr64       Cr  0.72499296  0.56259273  0.12852824     1.93200
Cr65       Cr  0.68249840  0.57060097  0.15273684     1.39100
O66         O  0.70379353  0.58098712  0.13697054    -1.23400
O67         O  0.69142715  0.58775747  0.82254241    -0.85700
O68         O  0.70317663  0.54433224  0.82888714    -0.82700
C69         C  0.72390225  0.54556192  0.82548052     0.97800
O70         O  0.73669493  0.55423020  0.83836827    -0.82700
O71         O  0.74989790  0.58262290  0.86940879    -0.85400
C72         C  0.75022821  0.60222428  0.86212225     1.02300
O73         O  0.73224570  0.61150924  0.85702713    -0.78100
O74         O  0.68971051  0.61652729  0.84286073    -0.78300
C75         C  0.68936549  0.60847266  0.82527681     1.02300
O76         O  0.65849464  0.58515100  0.85331048    -0.85700
O77         O  0.67415367  0.54285803  0.86278906    -0.82700
C78         C  0.68715297  0.52697386  0.86707188     0.97800
O79         O  0.70818345  0.52977219  0.86606871    -0.82800
O80         O  0.71820347  0.56049215  0.89534355    -0.85400
C81         C  0.71678768  0.57861588  0.90491999     1.02300
O82         O  0.71529892  0.59710412  0.89566282    -0.78200
O83         O  0.67259778  0.59988824  0.88041804    -0.78300
C84         C  0.65590058  0.59566127  0.86957172     1.02300
Cr85       Cr  0.68341747  0.56581191  0.84326792     1.93700
Cr86       Cr  0.72658361  0.55820828  0.86674604     1.93200
Cr87       Cr  0.70269804  0.60398786  0.86835971     1.39100
O88         O  0.70423737  0.57606069  0.85958167    -1.23400
O89         O  0.61610077  0.31528941  0.15344766    -0.85700
O90         O  0.61241841  0.27217499  0.14160829    -0.82700
C91         C  0.60400258  0.25372055  0.13677030     0.97800
O92         O  0.58520078  0.25318495  0.12804863    -0.82700
O93         O  0.55515777  0.26783737  0.15740364    -0.85400
C94         C  0.54449524  0.28091216  0.16879664     1.02300
O95         O  0.54310539  0.30146155  0.16450037    -0.78100
O96         O  0.58616636  0.31449292  0.17253296    -0.78300
C97         C  0.60709843  0.31587262  0.17066018     1.02300
O98         O  0.60183267  0.32978670  0.11435179    -0.85700
O99         O  0.60052222  0.28599041  0.10132857    -0.82700
C100        C  0.58260626  0.28458769  0.09128156     0.97800
O101        O  0.56392886  0.28336007  0.10000117    -0.82800
O102        O  0.53146057  0.29389226  0.12741854    -0.85400
C103        C  0.52838778  0.31469618  0.12469084     1.02300
O104        O  0.54367234  0.32841497  0.12903443    -0.78200
O105        O  0.58527593  0.34543136  0.13995536    -0.78300
C106        C  0.59703629  0.34708161  0.12423029     1.02300
Cr107      Cr  0.60546778  0.30062198  0.12816249     1.93700
Cr108      Cr  0.56024580  0.27619117  0.12874481     1.93200
Cr109      Cr  0.56543088  0.32087357  0.15029069     1.39100
O110        O  0.57710762  0.29927970  0.13560809    -1.23400
O111        O  0.60428193  0.31781325  0.83065992    -0.85700
O112        O  0.56954996  0.28909117  0.82230563    -0.82700
C113        C  0.55532508  0.27370157  0.82453906     0.97800
O114        O  0.55046835  0.26657871  0.84194436    -0.82700
O115        O  0.58779917  0.24536200  0.85784635    -0.85400
C116        C  0.60777361  0.24357506  0.86375080     1.02300
O117        O  0.61735272  0.25997176  0.87199682    -0.78100
O118        O  0.62544735  0.29061027  0.84155120    -0.78300
C119        C  0.62161985  0.30598655  0.82902133     1.02300
O120        O  0.57979356  0.33623758  0.86307518    -0.85700
O121        O  0.54319005  0.31043659  0.85212712    -0.82700
C122        C  0.53410532  0.30393779  0.86819890     0.97800
O123        O  0.54391200  0.28979881  0.87923001    -0.82800
O124        O  0.57977105  0.26658559  0.89603638    -0.85400
C125        C  0.59117902  0.28049834  0.90606881     1.02300
O126        O  0.60241763  0.29545004  0.89730084    -0.78200
O127        O  0.61440469  0.32616436  0.86870171    -0.78300
C128        C  0.59934538  0.34098073  0.86882929     1.02300
Cr129      Cr  0.57494816  0.31166102  0.84345568     1.93700
Cr130      Cr  0.56696698  0.26884340  0.86816448     1.93200
Cr131      Cr  0.61263619  0.29280812  0.86918411     1.39100
O132        O  0.58479130  0.29105099  0.86033277    -1.23400
O133        O  0.30969115  0.38272242  0.15042492    -0.85700
O134        O  0.26735185  0.38533465  0.13540458    -0.82700
C135        C  0.24938343  0.39347229  0.12889760     0.97800
O136        O  0.24947321  0.41238048  0.12032178    -0.82700
O137        O  0.26136672  0.44290394  0.14995613    -0.85400
C138        C  0.27333390  0.45364929  0.16217490     1.02300
O139        O  0.29402486  0.45579085  0.15898918    -0.78100
O140        O  0.30708260  0.41297814  0.16889013    -0.78300
C141        C  0.30936189  0.39206278  0.16748197     1.02300
O142        O  0.32717182  0.39635169  0.11208384    -0.85700
O143        O  0.28472462  0.39676095  0.09623585    -0.82700
C144        C  0.28289161  0.41420073  0.08550945     0.97800
O145        O  0.28082140  0.43319199  0.09355914    -0.82800
O146        O  0.28947740  0.46654411  0.12095672    -0.85400
C147        C  0.31042933  0.46957264  0.11932172     1.02300
O148        O  0.32377298  0.45469487  0.12534111    -0.78200
O149        O  0.34032176  0.41404272  0.13818314    -0.78300
C150        C  0.34353898  0.40247446  0.12259941     1.02300
Cr151      Cr  0.29696674  0.39257505  0.12400857     1.93700
Cr152      Cr  0.27195333  0.43753402  0.12193605     1.93200
Cr153      Cr  0.31475294  0.43343579  0.14656564     1.39100
O154        O  0.29462084  0.42110372  0.13067175    -1.23400
O155        O  0.32348613  0.37818641  0.82648119    -0.85700
O156        O  0.29759102  0.41311051  0.81348454    -0.82700
C157        C  0.28293434  0.42823096  0.81339032     0.97800
O158        O  0.27589130  0.43636033  0.82977917    -0.82700
O159        O  0.25273033  0.40232179  0.84949050    -0.85400
C160        C  0.24979173  0.38389374  0.85841816     1.02300
O161        O  0.26524849  0.37576286  0.86903746    -0.78100
O162        O  0.29496768  0.36104039  0.84036420    -0.78300
C163        C  0.30983022  0.36210532  0.82698030     1.02300
O164        O  0.34338585  0.40669298  0.85584474    -0.85700
O165        O  0.32024101  0.44262997  0.84052558    -0.82700
C166        C  0.31416318  0.45385231  0.85563645     0.97800
O167        O  0.29846239  0.44690705  0.86670988    -0.82800
O168        O  0.27310645  0.41550849  0.88709390    -0.85400
C169        C  0.28661455  0.40581537  0.89892188     1.02300
O170        O  0.30141984  0.39284924  0.89210349    -0.78200
O171        O  0.33160349  0.37389961  0.86581787    -0.78300
C172        C  0.34718238  0.38808308  0.86408812     1.02300
Cr173      Cr  0.31945001  0.40976027  0.83548318     1.93700
Cr174      Cr  0.27665829  0.42370600  0.85788052     1.93200
Cr175      Cr  0.29829041  0.37792545  0.86585445     1.39100
O176        O  0.29814612  0.40389956  0.85311504    -1.23400
O177        O  0.68387589  0.37598933  0.34415407    -0.85700
O178        O  0.72649184  0.38225934  0.35742030    -0.82700
C179        C  0.74420791  0.39189827  0.36268597     0.97800
O180        O  0.74344295  0.41104112  0.37078918    -0.82700
O181        O  0.72878871  0.43950609  0.34028284    -0.85400
C182        C  0.71579228  0.44889484  0.32798358     1.02300
O183        O  0.69502422  0.44923773  0.33144983    -0.78100
O184        O  0.68497243  0.40519910  0.32422381    -0.78300
C185        C  0.68347771  0.38436121  0.32666538     1.02300
O186        O  0.66726545  0.39116732  0.38236923    -0.85700
O187        O  0.71029853  0.39467522  0.39680078    -0.82700
C188        C  0.71142221  0.41288009  0.40649430     0.97800
O189        O  0.71154361  0.43137658  0.39736528    -0.82800
O190        O  0.69971555  0.46256243  0.36887471    -0.85400
C191        C  0.67858390  0.46405892  0.37060130     1.02300
O192        O  0.66637224  0.44777880  0.36579727    -0.78200
O193        O  0.65216526  0.40563772  0.35550518    -0.78300
C194        C  0.65018075  0.39524832  0.37195759     1.02300
Cr195      Cr  0.69711078  0.38821550  0.36963085     1.93700
Cr196      Cr  0.71929748  0.43474050  0.36873251     1.93200
Cr197      Cr  0.67625382  0.42622210  0.34549248     1.39100
O198        O  0.69754424  0.41634349  0.36144399    -1.23400
O199        O  0.69323519  0.40981366  0.67611130    -0.85700
O200        O  0.70456078  0.45178703  0.66307060    -0.82700
C201        C  0.72528711  0.45082956  0.66628308     0.97800
O202        O  0.73742495  0.43829971  0.65565755    -0.82700
O203        O  0.74978824  0.40525513  0.62795985    -0.85400
C204        C  0.74965345  0.38623740  0.63632535     1.02300
O205        O  0.73168430  0.37829260  0.64306520    -0.78100
O206        O  0.69035341  0.37764616  0.66032702    -0.78300
C207        C  0.69186541  0.38877891  0.67651082     1.02300
O208        O  0.65873633  0.40741335  0.64693103    -0.85700
O209        O  0.67472051  0.44687831  0.63020090    -0.82700
C210        C  0.68798617  0.46155814  0.62355074     0.97800
O211        O  0.70899928  0.45872317  0.62506014    -0.82800
O212        O  0.71877226  0.42370378  0.60013552    -0.85400
C213        C  0.71621948  0.40446643  0.59276153     1.02300
O214        O  0.71282384  0.38760845  0.60398876    -0.78200
O215        O  0.67106878  0.38829462  0.62142606    -0.78300
C216        C  0.65501852  0.39496104  0.63206193     1.02300
Cr217      Cr  0.68433198  0.42783652  0.65280682     1.93700
Cr218      Cr  0.72705944  0.43021673  0.62805897     1.93200
Cr219      Cr  0.70170622  0.38530792  0.63254337     1.39100
O220        O  0.70438699  0.41429518  0.63759135    -1.23400
O221        O  0.61485031  0.68378518  0.34074081    -0.85700
O222        O  0.61087596  0.72679872  0.35352767    -0.82700
C223        C  0.60244270  0.74491004  0.35926413     0.97800
O224        O  0.58327634  0.74503522  0.36727651    -0.82700
O225        O  0.55403579  0.73063780  0.33739600    -0.85400
C226        C  0.54334442  0.71774627  0.32592151     1.02300
O227        O  0.54164501  0.69717811  0.33016427    -0.78100
O228        O  0.58452399  0.68387697  0.32222376    -0.78300
C229        C  0.60550786  0.68292485  0.32365818     1.02300
O230        O  0.60045773  0.66890527  0.38013848    -0.85700
O231        O  0.59853383  0.71194896  0.39365337    -0.82700
C232        C  0.58049574  0.71439510  0.40351426     0.97800
O233        O  0.56191505  0.71539553  0.39465674    -0.82800
O234        O  0.52969359  0.70457000  0.36704577    -0.85400
C235        C  0.52660134  0.68380186  0.36994241     1.02300
O236        O  0.54196706  0.67010422  0.36580641    -0.78200
O237        O  0.58354801  0.65300303  0.35491976    -0.78300
C238        C  0.59531380  0.65153909  0.37062048     1.02300
Cr239      Cr  0.60392973  0.69800668  0.36647396     1.93700
Cr240      Cr  0.55853695  0.72221591  0.36598353     1.93200
Cr241      Cr  0.56381642  0.67759905  0.34450728     1.39100
O242        O  0.57552533  0.69919885  0.35915080    -1.23400
O243        O  0.59236958  0.68100504  0.67208170    -0.85700
O244        O  0.54901880  0.69244587  0.66423391    -0.82700
C245        C  0.55024739  0.71309317  0.66794236     0.97800
O246        O  0.55953947  0.72602067  0.65544262    -0.82700
O247        O  0.58937096  0.73941900  0.62534271    -0.85400
C248        C  0.60881963  0.73949349  0.63288405     1.02300
O249        O  0.61777869  0.72143494  0.63827362    -0.78100
O250        O  0.62179727  0.67888932  0.65247262    -0.78300
C251        C  0.61322476  0.67932699  0.66987451     1.02300
O252        O  0.59096714  0.64808173  0.64125169    -0.85700
O253        O  0.54963404  0.66373595  0.63003180    -0.82700
C254        C  0.53414173  0.67669740  0.62467479     0.97800
O255        O  0.53638109  0.69772213  0.62661423    -0.82800
O256        O  0.56825865  0.70832562  0.59842446    -0.85400
C257        C  0.58681565  0.70668167  0.58952489     1.02300
O258        O  0.60479344  0.70495206  0.59941387    -0.78200
O259        O  0.60638534  0.66203148  0.61431464    -0.78300
C260        C  0.60107147  0.64531102  0.62481569     1.02300
Cr261      Cr  0.57132249  0.67292014  0.65062460     1.93700
Cr262      Cr  0.56475318  0.71624684  0.62708309     1.93200
Cr263      Cr  0.61043299  0.69202972  0.62668706     1.39100
O264        O  0.58224843  0.69379755  0.63468777    -1.23400
O265        O  0.31069066  0.61937086  0.33973778    -0.85700
O266        O  0.26732419  0.61655849  0.35156540    -0.82700
C267        C  0.24851888  0.60803993  0.35513258     0.97800
O268        O  0.24717184  0.58862558  0.36266777    -0.82700
O269        O  0.26171429  0.55961034  0.33279364    -0.85400
C270        C  0.27464368  0.54895463  0.32132144     1.02300
O271        O  0.29506061  0.54708578  0.32578840    -0.78100
O272        O  0.30882638  0.59047850  0.31947200    -0.78300
C273        C  0.31143849  0.61118126  0.32221347     1.02300
O274        O  0.32466044  0.60259329  0.37822658    -0.85700
O275        O  0.28077354  0.60171276  0.39119526    -0.82700
C276        C  0.27742572  0.58331992  0.40022101     0.97800
O277        O  0.27553055  0.56535244  0.39055293    -0.82800
O278        O  0.28683549  0.53409268  0.36263631    -0.85400
C279        C  0.30755048  0.53089244  0.36579070     1.02300
O280        O  0.32151624  0.54592213  0.36140614    -0.78200
O281        O  0.33952375  0.58698576  0.35179111    -0.78300
C282        C  0.34172509  0.59720298  0.36823037     1.02300
Cr283      Cr  0.29554775  0.60782392  0.36460002     1.93700
Cr284      Cr  0.26955427  0.56325905  0.36166453     1.93200
Cr285      Cr  0.31458778  0.56848969  0.34081310     1.39100
O286        O  0.29323319  0.57994221  0.35587434    -1.23400
O287        O  0.31092380  0.58611664  0.66815123    -0.85700
O288        O  0.30251239  0.54256289  0.65829862    -0.82700
C289        C  0.28177897  0.54119791  0.66168731     0.97800
O290        O  0.26816187  0.55132578  0.65044135    -0.82700
O291        O  0.25211638  0.58188880  0.62213293    -0.85400
C292        C  0.25072263  0.60054113  0.63108540     1.02300
O293        O  0.26815495  0.61024866  0.63697488    -0.78100
O294        O  0.31066217  0.61694178  0.65028877    -0.78300
C295        C  0.31098079  0.60714436  0.66715973     1.02300
O296        O  0.34334203  0.58922526  0.63653670    -0.85700
O297        O  0.33056130  0.54723739  0.62395613    -0.82700
C298        C  0.31869659  0.53077887  0.61887323     0.97800
O299        O  0.29752474  0.53190207  0.62039167    -0.82800
O300        O  0.28434173  0.56488354  0.59396817    -0.85400
C301        C  0.28388812  0.58407243  0.58609925     1.02300
O302        O  0.28426864  0.60145923  0.59693780    -0.78200
O303        O  0.32720088  0.60537934  0.61096201    -0.78300
C304        C  0.34462442  0.60080455  0.62069385     1.02300
Cr305      Cr  0.32019737  0.56714047  0.64555635     1.93700
Cr306      Cr  0.27706725  0.55894379  0.62236031     1.93200
Cr307      Cr  0.29756774  0.60623618  0.62422709     1.39100
O308        O  0.29827945  0.57748731  0.63056473    -1.23400
O309        O  0.37281729  0.31427769  0.34146779    -0.85700
O310        O  0.37780871  0.27112927  0.35442805    -0.82700
C311        C  0.38707598  0.25319602  0.35978344     0.97800
O312        O  0.40578021  0.25374786  0.36873778    -0.82700
O313        O  0.43573237  0.26790448  0.33958045    -0.85400
C314        C  0.44558934  0.28069604  0.32739881     1.02300
O315        O  0.44625618  0.30147046  0.33061032    -0.78100
O316        O  0.40244795  0.31243297  0.32213283    -0.78300
C317        C  0.38161808  0.31477471  0.32415788     1.02300
O318        O  0.38709991  0.33011662  0.38012697    -0.85700
O319        O  0.38895748  0.28655355  0.39426410    -0.82700
C320        C  0.40666502  0.28557155  0.40464953     0.97800
O321        O  0.42554588  0.28542244  0.39621822    -0.82800
O322        O  0.45818019  0.29666304  0.36881668    -0.85400
C323        C  0.46008097  0.31780121  0.37029282     1.02300
O324        O  0.44428797  0.33024029  0.36473713    -0.78200
O325        O  0.40286523  0.34477763  0.35354563    -0.78300
C326        C  0.39259284  0.34709524  0.36998488     1.02300
Cr327      Cr  0.38387481  0.30035817  0.36708084     1.93700
Cr328      Cr  0.43000252  0.27751530  0.36773310     1.93200
Cr329      Cr  0.42313560  0.32057855  0.34396195     1.39100
O330        O  0.41229989  0.29949485  0.35972550    -1.23400
O331        O  0.40580893  0.30780460  0.67269902    -0.85700
O332        O  0.44896737  0.29580966  0.66700585    -0.82700
C333        C  0.44891055  0.27492327  0.67001846     0.97800
O334        O  0.44014177  0.26182826  0.65743083    -0.82700
O335        O  0.41146955  0.24772518  0.62688418    -0.85400
C336        C  0.39221409  0.24707324  0.63479955     1.02300
O337        O  0.38282836  0.26491496  0.64011044    -0.78100
O338        O  0.37676529  0.30785218  0.65271993    -0.78300
C339        C  0.38497577  0.30825704  0.67022034     1.02300
O340        O  0.40837567  0.33954806  0.64042550    -0.85700
O341        O  0.45101703  0.32383968  0.63202368    -0.82700
C342        C  0.46676694  0.31055490  0.62799170     0.97800
O343        O  0.46377422  0.28964339  0.62954621    -0.82800
O344        O  0.43291203  0.27929912  0.60052037    -0.85400
C345        C  0.41463649  0.27974850  0.59114545     1.02300
O346        O  0.39625724  0.28054412  0.60063349    -0.78200
O347        O  0.39284744  0.32362382  0.61442847    -0.78300
C348        C  0.39760278  0.34101236  0.62415675     1.02300
Cr349      Cr  0.42772142  0.31514858  0.65170449     1.93700
Cr350      Cr  0.43557413  0.27130583  0.62912151     1.93200
Cr351      Cr  0.38946288  0.29412623  0.62761085     1.39100
O352        O  0.41755768  0.29357110  0.63608718    -1.23400
O353        O  0.88628492  0.17577202  0.65657605    -0.85700
O354        O  0.88630207  0.21876882  0.64336746    -0.82700
C355        C  0.89372002  0.23761817  0.63824655     0.97800
O356        O  0.91254001  0.23921359  0.62956661    -0.82700
O357        O  0.94607224  0.22629117  0.65669117    -0.85400
C358        C  0.95835784  0.21363075  0.66711436     1.02300
O359        O  0.95926553  0.19303193  0.66324568    -0.78100
O360        O  0.91697605  0.17927868  0.67431432    -0.78300
C361        C  0.89611043  0.17638413  0.67340489     1.02300
O362        O  0.89922648  0.16103391  0.61704037    -0.85700
O363        O  0.89664917  0.20451048  0.60321119    -0.82700
C364        C  0.91347045  0.20825068  0.59214838     0.97800
O365        O  0.93262618  0.21066523  0.59977068    -0.82800
O366        O  0.96758429  0.20045869  0.62506568    -0.85400
C367        C  0.97114335  0.17960705  0.62305023     1.02300
O368        O  0.95664068  0.16562485  0.62869674    -0.78200
O369        O  0.91722658  0.14730818  0.64266674    -0.78300
C370        C  0.90574574  0.14437035  0.62702991     1.02300
Cr371      Cr  0.89443694  0.19034462  0.63044682     1.93700
Cr372      Cr  0.93844767  0.21740753  0.62843475     1.93200
Cr373      Cr  0.93644826  0.17294196  0.65106284     1.39100
O374        O  0.92303847  0.19365454  0.63652299    -1.23400
O375        O  0.89843952  0.19183975  0.32116706    -0.85700
O376        O  0.94273507  0.19894516  0.32753749    -0.82700
C377        C  0.94277845  0.21990058  0.32551757     0.97800
O378        O  0.93473574  0.23201605  0.33924282    -0.82700
O379        O  0.90738705  0.24425646  0.37141503    -0.85400
C380        C  0.88750750  0.24592192  0.36500321     1.02300
O381        O  0.87706776  0.22881378  0.35932874    -0.78100
O382        O  0.86986983  0.18854199  0.34165865    -0.78300
C383        C  0.87767314  0.19105989  0.32405759     1.02300
O384        O  0.89888191  0.15516165  0.34865008    -0.85700
O385        O  0.94193631  0.16682638  0.35901205    -0.82700
C386        C  0.95851940  0.17828124  0.36452303     0.97800
O387        O  0.95734613  0.19952827  0.36481114    -0.82800
O388        O  0.92799373  0.20961031  0.39506139    -0.85400
C389        C  0.91008951  0.20830728  0.40500432     1.02300
O390        O  0.89134685  0.20774966  0.39614823    -0.78200
O391        O  0.88672493  0.16671476  0.37767216    -0.78300
C392        C  0.89018553  0.15098985  0.36550999     1.02300
Cr393      Cr  0.91978861  0.17966611  0.34055865     1.93700
Cr394      Cr  0.93036348  0.21986188  0.36698222     1.93200
Cr395      Cr  0.88344204  0.19805727  0.36806222     1.39100
O396        O  0.91116274  0.19925363  0.35873084    -1.23400
O397        O  0.12370536  0.80816371  0.64910902    -0.85700
O398        O  0.11885133  0.76495850  0.63720644    -0.82700
C399        C  0.10949770  0.74674185  0.63291339     0.97800
O400        O  0.09069196  0.74664013  0.62416938    -0.82700
O401        O  0.06075791  0.76178138  0.65290080    -0.85400
C402        C  0.05139183  0.77525168  0.66476493     1.02300
O403        O  0.05060694  0.79575959  0.66038264    -0.78100
O404        O  0.09404495  0.80675421  0.66842447    -0.78300
C405        C  0.11492034  0.80840411  0.66642976     1.02300
O406        O  0.10921504  0.82307665  0.60999708    -0.85700
O407        O  0.10731238  0.77900320  0.59712233    -0.82700
C408        C  0.08953991  0.77666231  0.58700531     0.97800
O409        O  0.07071569  0.77664232  0.59555565    -0.82800
O410        O  0.03830861  0.78929597  0.62284790    -0.85400
C411        C  0.03633411  0.81036178  0.62075008     1.02300
O412        O  0.05227538  0.82308501  0.62539960    -0.78200
O413        O  0.09366054  0.83838243  0.63628249    -0.78300
C414        C  0.10378752  0.84032246  0.61974087     1.02300
Cr415      Cr  0.11256109  0.79365976  0.62382000     1.93700
Cr416      Cr  0.06646000  0.77026413  0.62438016     1.93200
Cr417      Cr  0.07347578  0.81435236  0.64644406     1.39100
O418        O  0.08420364  0.79274725  0.63135577    -1.23400
O419        O  0.09184804  0.81343536  0.32040476    -0.85700
O420        O  0.04767648  0.80393301  0.32612118    -0.82700
C421        C  0.04818480  0.78336084  0.32198363     0.97800
O422        O  0.05620348  0.76970721  0.33448242    -0.82700
O423        O  0.08392840  0.75378541  0.36476039    -0.85400
C424        C  0.10359842  0.75325878  0.35768423     1.02300
O425        O  0.11362952  0.77115468  0.35346652    -0.78100
O426        O  0.12028617  0.81401201  0.34111099    -0.78300
C427        C  0.11261519  0.81414071  0.32339945     1.02300
O428        O  0.09046423  0.84551121  0.35211446    -0.85700
O429        O  0.04765898  0.83139953  0.36105630    -0.82700
C430        C  0.03141834  0.81892868  0.36564132     0.97800
O431        O  0.03297740  0.79785320  0.36354027    -0.82800
O432        O  0.06302676  0.78419998  0.39218606    -0.85400
C433        C  0.08122640  0.78361216  0.40167619     1.02300
O434        O  0.09968505  0.78617279  0.39258805    -0.78200
O435        O  0.10387872  0.83004908  0.37921881    -0.78300
C436        C  0.10028638  0.84731918  0.36880665     1.02300
Cr437      Cr  0.07010699  0.82191708  0.34121844     1.93700
Cr438      Cr  0.06048023  0.77807731  0.36320879     1.93200
Cr439      Cr  0.10709601  0.80029313  0.36600642     1.39100
O440        O  0.07923657  0.80009289  0.35702802    -1.23400
O441        O  0.81668368  0.87172649  0.65344802    -0.85700
O442        O  0.77344190  0.87576276  0.64188030    -0.82700
C443        C  0.75494135  0.88459502  0.63787149     0.97800
O444        O  0.75420193  0.90396541  0.63015200    -0.82700
O445        O  0.77032698  0.93355481  0.65939524    -0.85400
C446        C  0.78445096  0.94266823  0.67083875     1.02300
O447        O  0.80446066  0.94473946  0.66515840    -0.78100
O448        O  0.81644056  0.90166621  0.67248143    -0.78300
C449        C  0.81728712  0.88073462  0.67067150     1.02300
O450        O  0.83054481  0.88684288  0.61395684    -0.85700
O451        O  0.78684385  0.88874201  0.60159275    -0.82700
C452        C  0.78395363  0.90694492  0.59211958     0.97800
O453        O  0.78291447  0.92530664  0.60136798    -0.82800
O454        O  0.79581187  0.95715657  0.62855875    -0.85400
C455        C  0.81662095  0.95982005  0.62534473     1.02300
O456        O  0.83009720  0.94414249  0.62909344    -0.78200
O457        O  0.84685779  0.90245598  0.63957119    -0.78300
C458        C  0.84809514  0.89146130  0.62345620     1.02300
Cr459      Cr  0.80171607  0.88302850  0.62825391     1.93700
Cr460      Cr  0.77747505  0.92866085  0.63035054     1.93200
Cr461      Cr  0.82284354  0.92239894  0.65037265     1.39100
O462        O  0.80064929  0.91128214  0.63614597    -1.23400
O463        O  0.80928100  0.90873039  0.32417228    -0.85700
O464        O  0.79546703  0.95123039  0.33408261    -0.82700
C465        C  0.77477236  0.95031906  0.33037059     0.97800
O466        O  0.76199824  0.93873380  0.34132937    -0.82700
O467        O  0.74840510  0.90613634  0.36868884    -0.85400
C468        C  0.74935220  0.88804862  0.35882756     1.02300
O469        O  0.76791882  0.88039111  0.35335841    -0.78100
O470        O  0.81147924  0.87802031  0.34205078    -0.78300
C471        C  0.81228789  0.88790481  0.32525588     1.02300
O472        O  0.84002259  0.90854596  0.35689205    -0.85700
O473        O  0.82263392  0.94906598  0.36925646    -0.82700
C474        C  0.80887012  0.96392487  0.37444620     0.97800
O475        O  0.78802617  0.96056234  0.37234779    -0.82800
O476        O  0.77784030  0.92581865  0.39804502    -0.85400
C477        C  0.77904594  0.90647550  0.40556682     1.02300
O478        O  0.78072407  0.88951652  0.39430518    -0.78200
O479        O  0.82452150  0.89050668  0.38184837    -0.78300
C480        C  0.84175610  0.89623826  0.37228005     1.02300
Cr481      Cr  0.81525908  0.92843197  0.34723479     1.93700
Cr482      Cr  0.77072059  0.93159352  0.36952117     1.93200
Cr483      Cr  0.79589127  0.88686537  0.36749771     1.39100
O484        O  0.79398868  0.91562136  0.36152950    -1.23400
O485        O  0.18778944  0.10831912  0.65992358    -0.85700
O486        O  0.22970937  0.10768223  0.64446826    -0.82700
C487        C  0.24787915  0.10045795  0.63762851     0.97800
O488        O  0.24819229  0.08268637  0.62731551    -0.82700
O489        O  0.23710825  0.04959814  0.65513375    -0.85400
C490        C  0.22541899  0.03745682  0.66656153     1.02300
O491        O  0.20477258  0.03505848  0.66321384    -0.78100
O492        O  0.19125138  0.07636910  0.67587177    -0.78300
C493        C  0.18923854  0.09733334  0.67619492     1.02300
O494        O  0.17049882  0.09732968  0.62050646    -0.85700
O495        O  0.21247645  0.09918858  0.60433650    -0.82700
C496        C  0.21403975  0.08237754  0.59278876     0.97800
O497        O  0.21673207  0.06302855  0.59992680    -0.82800
O498        O  0.20931913  0.02758397  0.62516490    -0.85400
C499        C  0.18843376  0.02413723  0.62344748     1.02300
O500        O  0.17472483  0.03842902  0.62993937    -0.78200
O501        O  0.15744697  0.07776433  0.64559887    -0.78300
C502        C  0.15416740  0.09037432  0.63064130     1.02300
Cr503      Cr  0.20039977  0.10092800  0.63260459     1.93700
Cr504      Cr  0.22623749  0.05685365  0.62763828     1.93200
Cr505      Cr  0.18345354  0.05798103  0.65245411     1.39100
O506        O  0.20329805  0.07201344  0.63741286    -1.23400
O507        O  0.17392607  0.11148427  0.33283371    -0.85700
O508        O  0.19840492  0.07480835  0.32153896    -0.82700
C509        C  0.21286491  0.05949266  0.32219071     0.97800
O510        O  0.21989034  0.05230051  0.33893803    -0.82700
O511        O  0.24374262  0.08684908  0.35739449    -0.85400
C512        C  0.24728977  0.10526780  0.36612016     1.02300
O513        O  0.23182259  0.11447208  0.37595074    -0.78100
O514        O  0.20329154  0.12828724  0.34544152    -0.78300
C515        C  0.18810370  0.12715449  0.33234939     1.02300
O516        O  0.15291624  0.08550639  0.36364094    -0.85700
O517        O  0.17473332  0.04781808  0.34990605    -0.82700
C518        C  0.18066368  0.03686914  0.36523361     0.97800
O519        O  0.19647235  0.04395479  0.37606788    -0.82800
O520        O  0.22188610  0.07600292  0.39534982    -0.85400
C521        C  0.20838913  0.08679470  0.40644329     1.02300
O522        O  0.19445137  0.10013791  0.39879219    -0.78200
O523        O  0.16586269  0.11862130  0.37105617    -0.78300
C524        C  0.14980863  0.10490258  0.37049978     1.02300
Cr525      Cr  0.17671242  0.08031997  0.34336279     1.93700
Cr526      Cr  0.21897800  0.06638515  0.36646053     1.93200
Cr527      Cr  0.19885552  0.11327670  0.37189935     1.39100
O528        O  0.19818064  0.08650529  0.36061759    -1.23400
O529        O  0.80603997  0.08801757  0.17801744    -0.85700
O530        O  0.79656714  0.04466297  0.16767302    -0.82700
C531        C  0.77586711  0.04432221  0.17144333     0.97800
O532        O  0.76253196  0.05512733  0.16040928    -0.82700
O533        O  0.74707026  0.08564883  0.13141092    -0.85400
C534        C  0.74606635  0.10473052  0.13959131     1.02300
O535        O  0.76360688  0.11391788  0.14584105    -0.78100
O536        O  0.80567648  0.11912332  0.16039093    -0.78300
C537        C  0.80606819  0.10908168  0.17718570     1.02300
O538        O  0.83853294  0.09102722  0.14699017    -0.85700
O539        O  0.82466991  0.04950437  0.13319554    -0.82700
C540        C  0.81230902  0.03357380  0.12766818     0.97800
O541        O  0.79126964  0.03475876  0.13015896    -0.82800
O542        O  0.77892891  0.06764180  0.10372048    -0.85400
C543        C  0.77944158  0.08668512  0.09556262     1.02300
O544        O  0.78070137  0.10427201  0.10614037    -0.78200
O545        O  0.82345081  0.10768386  0.12125549    -0.78300
C546        C  0.84048747  0.10317345  0.13156443     1.02300
Cr547      Cr  0.81483835  0.06915414  0.15523772     1.93700
Cr548      Cr  0.77149566  0.06220441  0.13215307     1.93200
Cr549      Cr  0.79330975  0.10895095  0.13384176     1.39100
O550        O  0.79319087  0.08022520  0.14027729    -1.23400
O551        O  0.81689042  0.11618922  0.84879672    -0.85700
O552        O  0.77319177  0.11042046  0.85869645    -0.82700
C553        C  0.75472595  0.10110227  0.86199838     0.97800
O554        O  0.75411090  0.08181542  0.87000331    -0.82700
O555        O  0.77169007  0.05277622  0.84130927    -0.85400
C556        C  0.78590845  0.04334523  0.83016848     1.02300
O557        O  0.80621622  0.04310622  0.83533551    -0.78100
O558        O  0.81715162  0.08693526  0.82898994    -0.78300
C559        C  0.81883846  0.10773472  0.83142945     1.02300
O560        O  0.82918632  0.10065519  0.88828368    -0.85700
O561        O  0.78493906  0.09764220  0.89926578    -0.82700
C562        C  0.78281530  0.07935766  0.90876723     0.97800
O563        O  0.78290053  0.06098008  0.89950908    -0.82800
O564        O  0.79755114  0.02961624  0.87216116    -0.85400
C565        C  0.81852281  0.02777380  0.87507262     1.02300
O566        O  0.83115015  0.04422932  0.87181621    -0.78200
O567        O  0.84661781  0.08628015  0.86257004    -0.78300
C568        C  0.84709442  0.09679091  0.87899602     1.02300
Cr569      Cr  0.80090656  0.10400697  0.87320853     1.93700
Cr570      Cr  0.77818328  0.05770124  0.87036239     1.93200
Cr571      Cr  0.82356598  0.06588038  0.85081284     1.39100
O572        O  0.80084165  0.07590464  0.86494966    -1.23400
O573        O  0.90901998  0.81686144  0.16720282    -0.85700
O574        O  0.95206227  0.80542753  0.15719378    -0.82700
C575        C  0.95296289  0.78490572  0.16163493     0.97800
O576        O  0.94182931  0.77086510  0.15162999    -0.82700
O577        O  0.90990569  0.75417511  0.12466526    -0.85400
C578        C  0.89142178  0.75432180  0.13399495     1.02300
O579        O  0.88260893  0.77258734  0.13893995    -0.78100
O580        O  0.87812264  0.81639915  0.14951309    -0.78300
C581        C  0.88803395  0.81825411  0.16620447     1.02300
O582        O  0.90696350  0.84653725  0.13366972    -0.85700
O583        O  0.94812459  0.83084384  0.12118460    -0.82700
C584        C  0.96392814  0.81783154  0.11669270     0.97800
O585        O  0.96186010  0.79692064  0.11960518    -0.82800
O586        O  0.92787915  0.78353872  0.09445412    -0.85400
C587        C  0.90859386  0.78347193  0.08682971     1.02300
O588        O  0.89141866  0.78522290  0.09785616    -0.78200
O589        O  0.88959943  0.82941944  0.10932688    -0.78300
C590        C  0.89472858  0.84724792  0.11824943     1.02300
Cr591      Cr  0.92813119  0.82319734  0.14373602     1.93700
Cr592      Cr  0.93396257  0.77800974  0.12314910     1.93200
Cr593      Cr  0.88773533  0.80078440  0.12432230     1.39100
O594        O  0.91655028  0.80064006  0.13031082    -1.23400
O595        O  0.88693231  0.80761997  0.83805345    -0.85700
O596        O  0.88966518  0.76461273  0.85020324    -0.82700
C597        C  0.89790919  0.74606259  0.85496243     0.97800
O598        O  0.91675061  0.74526678  0.86359034    -0.82700
O599        O  0.94865230  0.76203547  0.83654763    -0.85400
C600        C  0.96055205  0.77572928  0.82686676     1.02300
O601        O  0.96106138  0.79603725  0.83201083    -0.78100
O602        O  0.91862377  0.80794775  0.82134189    -0.78300
C603        C  0.89756761  0.80826153  0.82155444     1.02300
O604        O  0.89809661  0.82175075  0.87848205    -0.85700
O605        O  0.89910393  0.77813875  0.89115436    -0.82700
C606        C  0.91638828  0.77465167  0.90173194     0.97800
O607        O  0.93547655  0.77357933  0.89377714    -0.82800
O608        O  0.96950298  0.78711853  0.86913365    -0.85400
C609        C  0.97193703  0.80791139  0.87264633     1.02300
O610        O  0.95668047  0.82149941  0.86787075    -0.78200
O611        O  0.91591963  0.83835290  0.85413381    -0.78300
C612        C  0.90320426  0.83938575  0.86925919     1.02300
Cr613      Cr  0.89575562  0.79291485  0.86410948     1.93700
Cr614      Cr  0.94128333  0.76870744  0.86513366     1.93200
Cr615      Cr  0.93706924  0.81432928  0.84497336     1.39100
O616        O  0.92459960  0.79198552  0.85829114    -1.23400
O617        O  0.18643221  0.90557244  0.17073313    -0.85700
O618        O  0.19639346  0.94945878  0.16323435    -0.82700
C619        C  0.21685229  0.94963239  0.16778624     0.97800
O620        O  0.23082549  0.94009621  0.15639554    -0.82700
O621        O  0.24733931  0.91139185  0.12643833    -0.85400
C622        C  0.24800205  0.89178304  0.13358008     1.02300
O623        O  0.23020272  0.88201349  0.13850178    -0.78100
O624        O  0.18735340  0.87602165  0.15123716    -0.78300
C625        C  0.18623071  0.88463954  0.16857378     1.02300
O626        O  0.15517070  0.90547482  0.13849989    -0.85700
O627        O  0.16976422  0.94806103  0.12802593    -0.82700
C628        C  0.18256964  0.96425260  0.12401763     0.97800
O629        O  0.20354219  0.96224373  0.12632514    -0.82800
O630        O  0.21694677  0.93117034  0.09854265    -0.85400
C631        C  0.21671688  0.91270598  0.08938811     1.02300
O632        O  0.21483127  0.89447500  0.09897573    -0.78200
O633        O  0.17151304  0.89053152  0.11249947    -0.78300
C634        C  0.15399309  0.89454278  0.12235118     1.02300
Cr635      Cr  0.17865691  0.92630806  0.14885816     1.93700
Cr636      Cr  0.22303634  0.93474774  0.12749159     1.93200
Cr637      Cr  0.20101789  0.88806391  0.12589487     1.39100
O638        O  0.20092297  0.91629582  0.13392214    -1.23400
O639        O  0.18630727  0.87248240  0.84051369    -0.85700
O640        O  0.22965793  0.87522741  0.85245710    -0.82700
C641        C  0.24818080  0.88348285  0.85740137     0.97800
O642        O  0.24892369  0.90209698  0.86650069    -0.82700
O643        O  0.23551094  0.93301571  0.83796690    -0.85400
C644        C  0.22292868  0.94354232  0.82610540     1.02300
O645        O  0.20231813  0.94528198  0.82993773    -0.78100
O646        O  0.18925616  0.90213208  0.82128753    -0.78300
C647        C  0.18662079  0.88131740  0.82322413     1.02300
O648        O  0.17220772  0.88711617  0.87970448    -0.85700
O649        O  0.21596309  0.88656658  0.89269219    -0.82700
C650        C  0.21770146  0.90410429  0.90320042     0.97800
O651        O  0.21890461  0.92303380  0.89490241    -0.82800
O652        O  0.20862252  0.95644423  0.86810949    -0.85400
C653        C  0.18766952  0.95892782  0.87054115     1.02300
O654        O  0.17438789  0.94390585  0.86484412    -0.78200
O655        O  0.15746650  0.90343248  0.85351013    -0.78300
C656        C  0.15518175  0.89315722  0.86999444     1.02300
Cr657      Cr  0.20126855  0.88252490  0.86586743     1.93700
Cr658      Cr  0.22637884  0.92744937  0.86629012     1.93200
Cr659      Cr  0.18243681  0.92281848  0.84351502     1.39100
O660        O  0.20338017  0.91089677  0.85867029    -1.23400
O661        O  0.08897621  0.19262645  0.18098230    -0.85700
O662        O  0.04589605  0.20276767  0.17143254    -0.82700
C663        C  0.04610264  0.22383779  0.17195546     0.97800
O664        O  0.05618719  0.23488448  0.15859033    -0.82700
O665        O  0.08794694  0.24447165  0.12921541    -0.85400
C666        C  0.10667816  0.24513830  0.13814893     1.02300
O667        O  0.11529111  0.22751606  0.14490950    -0.78100
O668        O  0.11884699  0.18682941  0.16269923    -0.78300
C669        C  0.10986621  0.19064288  0.17959615     1.02300
O670        O  0.08822055  0.15550949  0.15353355    -0.85700
O671        O  0.04679692  0.16982721  0.14058978    -0.82700
C672        C  0.03154698  0.18204459  0.13345884     0.97800
O673        O  0.03435303  0.20310467  0.13220225    -0.82800
O674        O  0.06773862  0.21036894  0.10420586    -0.85400
C675        C  0.08668104  0.20827235  0.09609074     1.02300
O676        O  0.10413845  0.20740612  0.10682732    -0.78200
O677        O  0.10395606  0.16643553  0.12560716    -0.78300
C678        C  0.09857087  0.15095917  0.13748819     1.02300
Cr679      Cr  0.06839973  0.18156230  0.16021481     1.93700
Cr680      Cr  0.06291604  0.22158292  0.13183542     1.93200
Cr681      Cr  0.10828818  0.19729683  0.13544882     1.39100
O682        O  0.07982683  0.20015992  0.14234061    -1.23400
O683        O  0.12224711  0.17581961  0.84671357    -0.85700
O684        O  0.11710603  0.21896210  0.85817923    -0.82700
C685        C  0.10787036  0.23739310  0.86163884     0.97800
O686        O  0.08881954  0.23799078  0.86993091    -0.82700
O687        O  0.05973631  0.22146791  0.84098594    -0.85400
C688        C  0.05010583  0.20772155  0.82954768     1.02300
O689        O  0.04907291  0.18730053  0.83451243    -0.78100
O690        O  0.09225425  0.17533958  0.82775467    -0.78300
C691        C  0.11317431  0.17445772  0.82951669     1.02300
O692        O  0.10732164  0.16196691  0.88632302    -0.85700
O693        O  0.10431136  0.20545305  0.89885134    -0.82700
C694        C  0.08592095  0.20773970  0.90824278     0.97800
O695        O  0.06773589  0.20878484  0.89878027    -0.82800
O696        O  0.03634389  0.19566271  0.87151741    -0.85400
C697        C  0.03429862  0.17491712  0.87525044     1.02300
O698        O  0.04998725  0.16164427  0.87110139    -0.78200
O699        O  0.09174322  0.14520448  0.86090158    -0.78300
C700        C  0.10311303  0.14430965  0.87685735     1.02300
Cr701      Cr  0.11051496  0.19074245  0.87198653     1.93700
Cr702      Cr  0.06458901  0.21428893  0.86983111     1.93200
Cr703      Cr  0.07152800  0.16901076  0.84977478     1.39100
O704        O  0.08230469  0.19135788  0.86400427    -1.23400
C705        C  0.08853543  0.20717929  0.07380327    -0.03500
C706        C  0.10920018  0.20297549  0.06448694    -0.06100
C707        C  0.11091150  0.20186083  0.04353876    -0.21200
C708        C  0.09211565  0.20509584  0.03125962     0.24500
C709        C  0.07133288  0.20904642  0.04061536    -0.18800
C710        C  0.06961686  0.21010437  0.06158067    -0.08700
C711        C  0.09499427  0.20372017  0.00894593    -0.19000
C712        C  0.07993447  0.21135909  0.99550427    -0.23800
C713        C  0.08255181  0.21019170  0.97318619     0.26600
C714        C  0.06351110  0.21362524  0.96132214    -0.20600
C715        C  0.06478939  0.21306540  0.94039717    -0.10200
C716        C  0.08525511  0.20920247  0.93057219    -0.10800
C717        C  0.10446774  0.20600066  0.94235394    -0.03700
C718        C  0.10316859  0.20649391  0.96342421    -0.18800
H719        H  0.12409963  0.20045991  0.07339160     0.10300
H720        H  0.12710473  0.19858001  0.03687858     0.10400
H721        H  0.05620768  0.21098629  0.03197509     0.10000
H722        H  0.05338601  0.21317760  0.06822520     0.11100
H723        H  0.11039648  0.19629549  0.00354786     0.11200
H724        H  0.06458434  0.21885675  0.00092174     0.13100
H725        H  0.04742084  0.21663416  0.96829424     0.09600
H726        H  0.04959070  0.21558884  0.93190510     0.11700
H727        H  0.12048932  0.20298180  0.93529868     0.08300
H728        H  0.11839859  0.20427205  0.97186311     0.11100
C729        C  0.17805636  0.97988135  0.87873314    -0.03500
C730        C  0.15572818  0.98000396  0.88528427    -0.06100
C731        C  0.14500838  0.00001181  0.88998250    -0.21200
C732        C  0.15623754  0.02050180  0.88830924     0.24500
C733        C  0.17903080  0.02038196  0.88285981    -0.18800
C734        C  0.18986082  0.00019345  0.87820678    -0.08700
C735        C  0.14269894  0.04131692  0.89004329    -0.19000
C736        C  0.15107719  0.06211534  0.89185828    -0.23800
C737        C  0.13682679  0.08246033  0.89011902     0.26600
C738        C  0.14357299  0.10241839  0.89936233    -0.20600
C739        C  0.13175264  0.12232811  0.89612447    -0.10200
C740        C  0.11317994  0.12276334  0.88321126    -0.10800
C741        C  0.10604468  0.10265627  0.87446471    -0.03700
C742        C  0.11767959  0.08275883  0.87787147    -0.18800
H743        H  0.14619911  0.96462990  0.88606038     0.10300
H744        H  0.12751652  0.99952401  0.89417530     0.10400
H745        H  0.18824999  0.03580376  0.88111132     0.10000
H746        H  0.20705194  0.00062382  0.87313430     0.11100
H747        H  0.12468328  0.03932224  0.88929481     0.11200
H748        H  0.16880870  0.06448757  0.89444237     0.13100
H749        H  0.15833869  0.10270925  0.90873185     0.09600
H750        H  0.13782172  0.13757830  0.90294149     0.11700
H751        H  0.09191409  0.10244348  0.86434334     0.08300
H752        H  0.11226383  0.06791690  0.87001295     0.11100
C753        C  0.17300771  0.98635105  0.11874105    -0.03500
C754        C  0.18709646  0.00466384  0.11482351    -0.06100
C755        C  0.17831291  0.02623719  0.11307205    -0.21200
C756        C  0.15531632  0.03002893  0.11538551     0.24500
C757        C  0.14105258  0.01152647  0.11797704    -0.18800
C758        C  0.14982312  0.98993977  0.11966977    -0.08700
C759        C  0.14696249  0.05346660  0.11551086    -0.19000
C760        C  0.12823609  0.05968378  0.12531602    -0.23800
C761        C  0.12049873  0.08324008  0.12738771     0.26600
C762        C  0.10473509  0.08814901  0.14236754    -0.20600
C763        C  0.09733952  0.11003458  0.14539095    -0.10200
C764        C  0.10538875  0.12758827  0.13336179    -0.10800
C765        C  0.12069156  0.12265791  0.11797560    -0.03700
C766        C  0.12817506  0.10073421  0.11498954    -0.18800
H767        H  0.20502328  0.00246665  0.11385565     0.10300
H768        H  0.18963925  0.04012354  0.11072641     0.10400
H769        H  0.12314040  0.01362610  0.11897127     0.10000
H770        H  0.13847792  0.97617457  0.12245292     0.11100
H771        H  0.15764022  0.06606285  0.10880732     0.11200
H772        H  0.11877567  0.04712929  0.13344962     0.13100
H773        H  0.09835498  0.07503219  0.15202197     0.09600
H774        H  0.08544501  0.11322650  0.15730395     0.11700
H775        H  0.12715107  0.13580631  0.10840527     0.08300
H776        H  0.13981584  0.09768490  0.10289940     0.11100
C777        C  0.21834600  0.90239690  0.92536947    -0.03500
C778        C  0.21988851  0.88148443  0.93492129    -0.06100
C779        C  0.21972896  0.87995775  0.95587683    -0.21200
C780        C  0.21813535  0.89925726  0.96774320     0.24500
C781        C  0.21628328  0.92016148  0.95814358    -0.18800
C782        C  0.21653805  0.92169329  0.93723076    -0.08700
C783        C  0.21754271  0.89692397  0.98998690    -0.19000
C784        C  0.22342809  0.91356626  0.00253188    -0.23800
C785        C  0.22188715  0.91236992  0.02479623     0.26600
C786        C  0.22185502  0.93251654  0.03554223    -0.20600
C787        C  0.22028134  0.93258090  0.05643817    -0.10200
C788        C  0.21885627  0.91242459  0.06720140    -0.10800
C789        C  0.21922968  0.89216190  0.05651608    -0.03700
C790        C  0.22077050  0.89209961  0.03553306    -0.18800
H791        H  0.22114835  0.86627792  0.92620921     0.10300
H792        H  0.22091249  0.86363558  0.96285239     0.10400
H793        H  0.21407608  0.93538308  0.96662510     0.10000
H794        H  0.21488781  0.93801806  0.93034458     0.11100
H795        H  0.21209473  0.88097970  0.99600327     0.11200
H796        H  0.22922737  0.92928461  0.99628831     0.13100
H797        H  0.22281421  0.94836780  0.02770505     0.09600
H798        H  0.22006409  0.94849066  0.06414759     0.11700
H799        H  0.21832830  0.87632439  0.06436657     0.08300
H800        H  0.22135877  0.87617071  0.02793243     0.11100
C801        C  0.99350732  0.81659153  0.88051164    -0.03500
C802        C  0.01223632  0.80253703  0.88218513    -0.06100
C803        C  0.03328278  0.81135953  0.88685945    -0.21200
C804        C  0.03617436  0.83441533  0.88990206     0.24500
C805        C  0.01713228  0.84825314  0.88954811    -0.18800
C806        C  0.99612428  0.83945717  0.88477197    -0.08700
C807        C  0.05934399  0.84339799  0.89221308    -0.19000
C808        C  0.06490283  0.86472902  0.88785607    -0.23800
C809        C  0.08831481  0.87284072  0.88559441     0.26600
C810        C  0.09215185  0.89097263  0.87267783    -0.20600
C811        C  0.11383994  0.89797694  0.86825857    -0.10200
C812        C  0.13234886  0.88725943  0.87690661    -0.10800
C813        C  0.12858652  0.87000021  0.89087337    -0.03700
C814        C  0.10674521  0.86276082  0.89513448    -0.18800
H815        H  0.01083233  0.78483552  0.87908865     0.10300
H816        H  0.04754099  0.80021849  0.88726429     0.10400
H817        H  0.01830903  0.86594272  0.89262801     0.10000
H818        H  0.98200270  0.85072298  0.88390690     0.11100
H819        H  0.07253703  0.83142597  0.89526834     0.11200
H820        H  0.05192916  0.87625544  0.88319781     0.13100
H821        H  0.07830739  0.89923933  0.86530103     0.09600
H822        H  0.11612257  0.91150923  0.85764172     0.11700
H823        H  0.14252520  0.86154871  0.89791169     0.08300
H824        H  0.10440258  0.84917342  0.90565090     0.11100
C825        C  0.98565398  0.82744310  0.11022681    -0.03500
C826        C  0.98711878  0.85008754  0.10474996    -0.06100
C827        C  0.00791814  0.86039565  0.10232451    -0.21200
C828        C  0.02778379  0.84837245  0.10524213     0.24500
C829        C  0.02635935  0.82537283  0.10965489    -0.18800
C830        C  0.00549315  0.81502024  0.11203197    -0.08700
C831        C  0.04926860  0.86097399  0.10583769    -0.19000
C832        C  0.06964182  0.85158156  0.10405953    -0.23800
C833        C  0.09074975  0.86427052  0.10736339     0.26600
C834        C  0.11050249  0.85721123  0.09790779    -0.20600
C835        C  0.13093529  0.86771508  0.10200200    -0.10200
C836        C  0.13211205  0.88523889  0.11598644    -0.10800
C837        C  0.11227718  0.89248419  0.12525764    -0.03700
C838        C  0.09185168  0.88218035  0.12098748    -0.18800
H839        H  0.97216971  0.86012323  0.10318570     0.10300
H840        H  0.00847802  0.87809983  0.09891540     0.10400
H841        H  0.04120701  0.81556657  0.11242127     0.10000
H842        H  0.00494430  0.79760118  0.11645585     0.11100
H843        H  0.04815375  0.87891870  0.10808443     0.11200
H844        H  0.07107143  0.83409333  0.09995833     0.13100
H845        H  0.11016626  0.84331404  0.08751947     0.09600
H846        H  0.14592818  0.86156862  0.09477404     0.11700
H847        H  0.11261005  0.90580970  0.13623015     0.08300
H848        H  0.07714320  0.88769211  0.12903094     0.11100
C849        C  0.90603441  0.78126247  0.06481366    -0.03500
C850        C  0.88476825  0.78186834  0.05587650    -0.06100
C851        C  0.88251633  0.78068163  0.03501398    -0.21200
C852        C  0.90139978  0.77857261  0.02267755     0.24500
C853        C  0.92268277  0.77809052  0.03161387    -0.18800
C854        C  0.92494441  0.77935143  0.05242633    -0.08700
C855        C  0.89855058  0.77809688  0.00054305    -0.19000
C856        C  0.91315313  0.76769881  0.98832726    -0.23800
C857        C  0.91254133  0.76863126  0.96603807     0.26600
C858        C  0.93193175  0.76245881  0.95559797    -0.20600
C859        C  0.93296427  0.76408129  0.93475684    -0.10200
C860        C  0.91448997  0.77171481  0.92373095    -0.10800
C861        C  0.89474211  0.77718535  0.93403582    -0.03700
C862        C  0.89374763  0.77569579  0.95500486    -0.18800
H863        H  0.86986644  0.78351106  0.06497792     0.10300
H864        H  0.86596717  0.78137357  0.02848210     0.10400
H865        H  0.93769377  0.77735910  0.02259027     0.10000
H866        H  0.94158061  0.77914693  0.05878878     0.11100
H867        H  0.88417365  0.78671676  0.99440584     0.11200
H868        H  0.92702447  0.75865986  0.99497448     0.13100
H869        H  0.94659701  0.75680034  0.96364474     0.09600
H870        H  0.94839008  0.75954728  0.92729510     0.11700
H871        H  0.88019933  0.78301712  0.92593118     0.08300
H872        H  0.87826684  0.78008538  0.96235439     0.11100
C873        C  0.82903214  0.00596240  0.88019742    -0.03500
C874        C  0.85231339  0.00489243  0.88289309    -0.06100
C875        C  0.86324623  0.98437282  0.88433627    -0.21200
C876        C  0.85132230  0.96423191  0.88331613     0.24500
C877        C  0.82783999  0.96517130  0.88160714    -0.18800
C878        C  0.81682075  0.98586817  0.88008586    -0.08700
C879        C  0.86445128  0.94303984  0.88238736    -0.19000
C880        C  0.85593969  0.92231361  0.88461307    -0.23800
C881        C  0.86962234  0.90165890  0.88193697     0.26600
C882        C  0.86291402  0.88178388  0.89143238    -0.20600
C883        C  0.87449428  0.86175815  0.88813913    -0.10200
C884        C  0.89287526  0.86106521  0.87497386    -0.10800
C885        C  0.89982404  0.88103111  0.86572382    -0.03700
C886        C  0.88836511  0.90106306  0.86913282    -0.18800
H887        H  0.86233562  0.01996710  0.88308646     0.10300
H888        H  0.88128393  0.98426412  0.88565648     0.10400
H889        H  0.81797753  0.95008951  0.88050384     0.10000
H890        H  0.79890216  0.98609060  0.87790272     0.11100
H891        H  0.88227785  0.94476571  0.87980982     0.11200
H892        H  0.83857497  0.92022064  0.88887570     0.13100
H893        H  0.84846213  0.88168730  0.90122954     0.09600
H894        H  0.86853426  0.84665217  0.89534761     0.11700
H895        H  0.91376449  0.88106574  0.85534792     0.08300
H896        H  0.89373348  0.91580234  0.86103567     0.11100
C897        C  0.86857611  0.10618701  0.88603218    -0.03500
C898        C  0.86913179  0.12460295  0.89910325    -0.06100
C899        C  0.88928556  0.13578769  0.90285561    -0.21200
C900        C  0.90927069  0.12848393  0.89397005     0.24500
C901        C  0.90876853  0.10950619  0.88153950    -0.18800
C902        C  0.88868623  0.09851986  0.87764482    -0.08700
C903        C  0.92999243  0.14199194  0.89615282    -0.19000
C904        C  0.95045159  0.13276250  0.89481514    -0.23800
C905        C  0.97170451  0.14548124  0.89288211     0.26600
C906        C  0.99178938  0.13363812  0.89491553    -0.20600
C907        C  0.01217601  0.14359567  0.89008156    -0.10200
C908        C  0.01301308  0.16572736  0.88307151    -0.10800
C909        C  0.99307901  0.17808625  0.88204426    -0.03700
C910        C  0.97256510  0.16804456  0.88680375    -0.18800
H911        H  0.85385264  0.13104949  0.90560734     0.10300
H912        H  0.88919244  0.15048091  0.91232424     0.10400
H913        H  0.92365056  0.10374047  0.87390935     0.10000
H914        H  0.88878901  0.08448259  0.86740764     0.11100
H915        H  0.92820110  0.15984676  0.89844227     0.11200
H916        H  0.95176953  0.11466166  0.89441515     0.13100
H917        H  0.99165563  0.11626643  0.89953772     0.09600
H918        H  0.02724631  0.13367272  0.89120221     0.11700
H919        H  0.99320137  0.19515751  0.87660701     0.08300
H920        H  0.95748513  0.17768011  0.88468572     0.11100
C921        C  0.88505877  0.86900230  0.11204173    -0.03500
C922        C  0.86570582  0.87003552  0.10015941    -0.06100
C923        C  0.85460031  0.89042723  0.09726816    -0.21200
C924        C  0.86279252  0.91021648  0.10589607     0.24500
C925        C  0.88268243  0.90924210  0.11709591    -0.18800
C926        C  0.89364909  0.88892003  0.12008252    -0.08700
C927        C  0.84918545  0.93104808  0.10479024    -0.19000
C928        C  0.85798948  0.95161278  0.10726401    -0.23800
C929        C  0.84469762  0.97247894  0.10979158     0.26600
C930        C  0.85590103  0.99305412  0.10849736    -0.20600
C931        C  0.84508586  0.01298369  0.11347533    -0.10200
C932        C  0.82271387  0.01285225  0.11985538    -0.10800
C933        C  0.81111819  0.99241873  0.12033268    -0.03700
C934        C  0.82200567  0.97240108  0.11547644    -0.18800
H935        H  0.85854166  0.85494973  0.09393085     0.10300
H936        H  0.83921942  0.89064488  0.08872808     0.10400
H937        H  0.88927320  0.92387133  0.12452526     0.10000
H938        H  0.90845297  0.88868867  0.12940245     0.11100
H939        H  0.83138721  0.92918457  0.10223929     0.11200
H940        H  0.87602503  0.95337256  0.10792829     0.13100
H941        H  0.87336770  0.99365811  0.10423324     0.09600
H942        H  0.85445451  0.02845926  0.11286829     0.11700
H943        H  0.79392240  0.99176060  0.12538647     0.08300
H944        H  0.81283439  0.95694407  0.11713632     0.11100
C945        C  0.86266705  0.11314454  0.12670722    -0.03500
C946        C  0.86536873  0.12873462  0.11104937    -0.06100
C947        C  0.88598940  0.13950428  0.10801821    -0.21200
C948        C  0.90440227  0.13473676  0.12038439     0.24500
C949        C  0.90167757  0.11897357  0.13588512    -0.18800
C950        C  0.88117830  0.10830589  0.13892947    -0.08700
C951        C  0.92583620  0.14727230  0.11776451    -0.19000
C952        C  0.94576115  0.13851421  0.12306985    -0.23800
C953        C  0.96759040  0.15062684  0.12295062     0.26600
C954        C  0.98715116  0.13790213  0.12498691    -0.20600
C955        C  0.00791944  0.14817518  0.12746156    -0.10200
C956        C  0.00979867  0.17158094  0.12803771    -0.10800
C957        C  0.99037638  0.18447286  0.12520915    -0.03700
C958        C  0.96944836  0.17412315  0.12274447    -0.18800
H959        H  0.85142636  0.13300437  0.10145332     0.10300
H960        H  0.88752085  0.15172156  0.09608643     0.10400
H961        H  0.91512085  0.11535354  0.14621242     0.10000
H962        H  0.87971123  0.09662807  0.15128777     0.11100
H963        H  0.92507314  0.16385593  0.11119613     0.11200
H964        H  0.94626910  0.12117686  0.12788829     0.13100
H965        H  0.98631007  0.11981271  0.12523826     0.09600
H966        H  0.02247523  0.13768578  0.12952467     0.11700
H967        H  0.99120699  0.20254504  0.12574501     0.08300
H968        H  0.95478302  0.18457725  0.12156561     0.11100
C969        C  0.78015130  0.07936829  0.93094561    -0.03500
C970        C  0.77765436  0.05910297  0.94140384    -0.06100
C971        C  0.77589494  0.05882635  0.96230109    -0.21200
C972        C  0.77666053  0.07872831  0.97341840     0.24500
C973        C  0.77893090  0.09911709  0.96295021    -0.18800
C974        C  0.78067823  0.09938595  0.94196386    -0.08700
C975        C  0.77502335  0.07705362  0.99573807    -0.19000
C976        C  0.77857117  0.09404539  0.00865176    -0.23800
C977        C  0.77790984  0.09146910  0.03092696     0.26600
C978        C  0.77537241  0.11063752  0.04286748    -0.20600
C979        C  0.77561636  0.10913715  0.06383222    -0.10200
C980        C  0.77844724  0.08837244  0.07337120    -0.10800
C981        C  0.78091852  0.06916427  0.06145976    -0.03700
C982        C  0.78080728  0.07067385  0.04052616    -0.18800
H983        H  0.77721004  0.04334564  0.93345313     0.10300
H984        H  0.77412266  0.04286076  0.96984278     0.10400
H985        H  0.77928135  0.11494351  0.97069222     0.10000
H986        H  0.78257028  0.11529488  0.93437489     0.11100
H987        H  0.77084066  0.06070463  0.00170646     0.11200
H988        H  0.78211030  0.11064119  0.00295527     0.13100
H989        H  0.77327979  0.12689125  0.03593593     0.09600
H990        H  0.77367957  0.12426000  0.07256172     0.11700
H991        H  0.78342009  0.05293415  0.06832061     0.08300
H992        H  0.78362642  0.05554396  0.03207278     0.11100
C993        C  0.22045910  0.04909586  0.30313526    -0.03500
C994        C  0.21685537  0.06018221  0.28485934    -0.06100
C995        C  0.22110478  0.04949721  0.26664765    -0.21200
C996        C  0.22891778  0.02736825  0.26610231     0.24500
C997        C  0.23350612  0.01649579  0.28440676    -0.18800
C998        C  0.22942304  0.02734243  0.30274727    -0.08700
C999        C  0.22944182  0.01597176  0.24620861    -0.19000
C1000       C  0.23757413  0.99535135  0.24237366    -0.23800
C1001       C  0.23314974  0.98413744  0.22278446     0.26600
C1002       C  0.24881553  0.96946697  0.21412798    -0.20600
C1003       C  0.24412876  0.95858148  0.19586706    -0.10200
C1004       C  0.22346969  0.96185196  0.18626727    -0.10800
C1005       C  0.20789169  0.97641884  0.19513481    -0.03700
C1006       C  0.21259977  0.98729720  0.21307035    -0.18800
H1007       H  0.21009805  0.07697287  0.28460421     0.10300
H1008       H  0.21741563  0.05834380  0.25285808     0.10400
H1009       H  0.23928899  0.99938597  0.28472153     0.10000
H1010       H  0.23224716  0.01830853  0.31660043     0.11100
H1011       H  0.22168417  0.02500190  0.23390462     0.11200
H1012       H  0.24710624  0.98637772  0.25360980     0.13100
H1013       H  0.26466703  0.96649963  0.22146109     0.09600
H1014       H  0.25637099  0.94729001  0.18953193     0.11700
H1015       H  0.19174463  0.97930834  0.18830095     0.08300
H1016       H  0.19977848  0.99779374  0.21957672     0.11100
C1017       C  0.12352114  0.19216152  0.19801857    -0.03500
C1018       C  0.11517358  0.20373791  0.21471231    -0.06100
C1019       C  0.12675051  0.20365164  0.23284736    -0.21200
C1020       C  0.14684420  0.19178391  0.23489101     0.24500
C1021       C  0.15580220  0.18102063  0.21786472    -0.18800
C1022       C  0.14429095  0.18138669  0.19954985    -0.08700
C1023       C  0.15588295  0.18883882  0.25553921    -0.19000
C1024       C  0.17453646  0.17737374  0.26025678    -0.23800
C1025       C  0.17859227  0.16867276  0.28087078     0.26600
C1026       C  0.20037676  0.16301275  0.28693473    -0.20600
C1027       C  0.20395942  0.15102617  0.30477808    -0.10200
C1028       C  0.18570720  0.14413456  0.31648526    -0.10800
C1029       C  0.16412083  0.15079558  0.31098241    -0.03700
C1030       C  0.16056965  0.16294167  0.29345265    -0.18800
H1031       H  0.09936491  0.21249369  0.21388487     0.10300
H1032       H  0.11942045  0.21212371  0.24560634     0.10400
H1033       H  0.17111302  0.17152289  0.21867884     0.10000
H1034       H  0.15111900  0.17238172  0.18686799     0.11100
H1035       H  0.14545998  0.19493384  0.26769963     0.11200
H1036       H  0.18634349  0.17263499  0.24869071     0.13100
H1037       H  0.21450973  0.16701674  0.27742528     0.09600
H1038       H  0.22073265  0.14580757  0.30865059     0.11700
H1039       H  0.14978699  0.14555141  0.31976143     0.08300
H1040       H  0.14348059  0.16630394  0.28915898     0.27100
C1041       C  0.20956103  0.08441493  0.42857064    -0.03500
C1042       C  0.22566987  0.07050515  0.43745183    -0.06100
C1043       C  0.22713068  0.06869229  0.45831803    -0.21200
C1044       C  0.21267454  0.08082160  0.47082715     0.24500
C1045       C  0.19624943  0.09444079  0.46195709    -0.18800
C1046       C  0.19477151  0.09624508  0.44106782    -0.08700
C1047       C  0.21482456  0.07813000  0.49293613    -0.19000
C1048       C  0.20707974  0.09301152  0.50644371    -0.23800
C1049       C  0.20934702  0.08995158  0.52852464     0.26600
C1050       C  0.20826622  0.10873907  0.54110759    -0.20600
C1051       C  0.21004408  0.10643730  0.56196379    -0.10200
C1052       C  0.21280394  0.08521791  0.57069372    -0.10800
C1053       C  0.21360244  0.06640218  0.55809535    -0.03700
C1054       C  0.21179953  0.06869840  0.53731004    -0.18800
H1055       H  0.23725377  0.06108301  0.42828780     0.10300
H1056       H  0.23977030  0.05787703  0.46472762     0.10400
H1057       H  0.18428639  0.10347145  0.47100241     0.10000
H1058       H  0.18200145  0.10692681  0.43470835     0.11100
H1059       H  0.22413004  0.06368797  0.49815266     0.11200
H1060       H  0.19963412  0.10851216  0.50126101     0.13100
H1061       H  0.20611395  0.12528438  0.53476740     0.09600
H1062       H  0.20914089  0.12124600  0.57123784     0.11700
H1063       H  0.21534285  0.04975823  0.56431018     0.08300
H1064       H  0.21185085  0.05369550  0.52829897     0.11100
C1065       C  0.23182765  0.95398866  0.80764204    -0.03500
C1066       C  0.24765555  0.94284334  0.79573962    -0.06100
C1067       C  0.25338057  0.95120994  0.77674555    -0.21200
C1068       C  0.24399278  0.97123456  0.76967256     0.24500
C1069       C  0.22895398  0.98289417  0.78204391    -0.18800
C1070       C  0.22276163  0.97421841  0.80072716    -0.08700
C1071       C  0.24770398  0.97826268  0.74854374    -0.19000
C1072       C  0.24817477  0.99988029  0.74288592    -0.23800
C1073       C  0.24621903  0.00721647  0.72164997     0.26600
C1074       C  0.25498039  0.02804065  0.71580690    -0.20600
C1075       C  0.24978797  0.03720098  0.69700831    -0.10200
C1076       C  0.23519093  0.02593607  0.68404604    -0.10800
C1077       C  0.22726829  0.00468020  0.68948474    -0.03700
C1078       C  0.23288608  0.99529576  0.70800345    -0.18800
H1079       H  0.25464289  0.92706631  0.80065121     0.10300
H1080       H  0.26476160  0.94178706  0.76736523     0.10400
H1081       H  0.22099407  0.99807109  0.77683615     0.10000
H1082       H  0.21042702  0.98304654  0.80959628     0.11100
H1083       H  0.24913410  0.96523945  0.73728308     0.11200
H1084       H  0.24881272  0.01279711  0.75430739     0.13100
H1085       H  0.26510100  0.03763161  0.72613749     0.09600
H1086       H  0.25585866  0.05373934  0.69322249     0.11700
H1087       H  0.21588559  0.99574677  0.67974341     0.08300
H1088       H  0.22544285  0.97945565  0.71214871     0.11100
C1089       C  0.12661565  0.17105924  0.81111184    -0.03500
C1090       C  0.11675093  0.17520971  0.79236279    -0.06100
C1091       C  0.12818845  0.17055979  0.77466597    -0.21200
C1092       C  0.14968080  0.16134344  0.77514930     0.24500
C1093       C  0.16001616  0.15782015  0.79388035    -0.18800
C1094       C  0.14856433  0.16274196  0.81174614    -0.08700
C1095       C  0.16008484  0.15520077  0.75567967    -0.19000
C1096       C  0.17517460  0.13871011  0.75351241    -0.23800
C1097       C  0.18122474  0.12942259  0.73353100     0.26600
C1098       C  0.18753155  0.10690352  0.73232693    -0.20600
C1099       C  0.19065294  0.09668184  0.71371506    -0.10200
C1100       C  0.18771430  0.10882471  0.69582742    -0.10800
C1101       C  0.18275801  0.13173194  0.69701532    -0.03700
C1102       C  0.17960742  0.14196725  0.71567626    -0.18800
H1103       H  0.09995092  0.18183057  0.79132281     0.10300
H1104       H  0.11988697  0.17358188  0.76049103     0.10400
H1105       H  0.17681244  0.15123717  0.79480093     0.10000
H1106       H  0.15660454  0.15948405  0.82599088     0.11100
H1107       H  0.15280990  0.16268603  0.74237782     0.11200
H1108       H  0.18100331  0.12978221  0.76668315     0.13100
H1109       H  0.18917819  0.09692245  0.74581587     0.09600
H1110       H  0.19487161  0.07908708  0.71335866     0.11700
H1111       H  0.18080755  0.14164197  0.68352517     0.08300
H1112       H  0.17565143  0.15959890  0.71599973     0.11100
C1113       C  0.81821642  0.87521961  0.30703354    -0.03500
C1114       C  0.82419173  0.85253387  0.30829616    -0.06100
C1115       C  0.83181890  0.84115053  0.29133388    -0.21200
C1116       C  0.83335355  0.85211587  0.27278016     0.24500
C1117       C  0.82698040  0.87470707  0.27146055    -0.18800
C1118       C  0.81940890  0.88607907  0.28838859    -0.08700
C1119       C  0.84334679  0.84021387  0.25548760    -0.19000
C1120       C  0.83918605  0.84604794  0.23637079    -0.23800
C1121       C  0.85123532  0.83658832  0.21892418     0.26600
C1122       C  0.84169451  0.83892710  0.19984398    -0.20600
C1123       C  0.85336906  0.83224117  0.18275415    -0.10200
C1124       C  0.87501161  0.82339665  0.18440232    -0.10800
C1125       C  0.88447981  0.82069780  0.20350060    -0.03700
C1126       C  0.87271497  0.82720504  0.22062733    -0.18800
H1127       H  0.82355561  0.84372928  0.32248932     0.10300
H1128       H  0.83684408  0.82382676  0.29276128     0.10400
H1129       H  0.82864268  0.88397982  0.25760378     0.10000
H1130       H  0.81509231  0.90358694  0.28696168     0.11100
H1131       H  0.85441357  0.82631128  0.25870532     0.11200
H1132       H  0.82640743  0.85842415  0.23322772     0.13100
H1133       H  0.82529726  0.84633301  0.19812422     0.09600
H1134       H  0.84572908  0.83468979  0.16820095     0.11700
H1135       H  0.90116566  0.81395994  0.20517472     0.08300
H1136       H  0.88092058  0.82569664  0.23500063     0.11100
C1137       C  0.76793787  0.03025013  0.18830595    -0.03500
C1138       C  0.77864252  0.00978009  0.19204413    -0.06100
C1139       C  0.77324460  0.99707893  0.20895633    -0.21200
C1140       C  0.75754914  0.00484162  0.22291669     0.24500
C1141       C  0.74633722  0.02509532  0.21901912    -0.18800
C1142       C  0.75132072  0.03758393  0.20167354    -0.08700
C1143       C  0.75413250  0.99168272  0.24162823    -0.19000
C1144       C  0.75207760  0.00131496  0.25977317    -0.23800
C1145       C  0.75510230  0.98849926  0.27873909     0.26600
C1146       C  0.76720789  0.99841221  0.29436890    -0.20600
C1147       C  0.77293096  0.98607877  0.31142418    -0.10200
C1148       C  0.76598820  0.96378801  0.31355259    -0.10800
C1149       C  0.75263672  0.95419379  0.29856127    -0.03700
C1150       C  0.74742312  0.96637851  0.28114826    -0.18800
H1151       H  0.79146678  0.00371713  0.18194651     0.10300
H1152       H  0.78205528  0.98152576  0.21156732     0.10400
H1153       H  0.73391477  0.03132031  0.22941404     0.10000
H1154       H  0.74291777  0.05336665  0.19915146     0.11100
H1155       H  0.75696674  0.97376416  0.24082457     0.11200
H1156       H  0.75174688  0.01944500  0.26073433     0.13100
H1157       H  0.77322906  0.01542440  0.29293542     0.09600
H1158       H  0.78321019  0.99381524  0.32283201     0.11700
H1159       H  0.74719428  0.93698346  0.29987493     0.08300
H1160       H  0.73773419  0.95841674  0.26947470     0.11100
C1161       C  0.77864779  0.90355899  0.42768294    -0.03500
C1162       C  0.78094846  0.88223388  0.43636228    -0.06100
C1163       C  0.78195537  0.87969793  0.45722817    -0.21200
C1164       C  0.78049378  0.89834075  0.46992203     0.24500
C1165       C  0.77821153  0.91969373  0.46119787    -0.18800
C1166       C  0.77718926  0.92222127  0.44036902    -0.08700
C1167       C  0.78241616  0.89502781  0.49204020    -0.19000
C1168       C  0.77467801  0.90994211  0.50549512    -0.23800
C1169       C  0.77746219  0.90808527  0.52762090     0.26600
C1170       C  0.77520984  0.92764187  0.53900192    -0.20600
C1171       C  0.77731688  0.92714897  0.55982297    -0.10200
C1172       C  0.78153874  0.90697372  0.56994806    -0.10800
C1173       C  0.78369622  0.88725049  0.55863346    -0.03700
C1174       C  0.78168814  0.88776991  0.53765374    -0.18800
H1175       H  0.78231114  0.86750481  0.42702789     0.10300
H1176       H  0.78395103  0.86309281  0.46348250     0.10400
H1177       H  0.77787731  0.93464352  0.47025974     0.10000
H1178       H  0.77571536  0.93890957  0.43419324     0.11100
H1179       H  0.79053652  0.87988009  0.49721455     0.11200
H1180       H  0.76622567  0.92482333  0.50015350     0.13100
H1181       H  0.77191598  0.94350465  0.53171989     0.09600
H1182       H  0.77559301  0.94267976  0.56798933     0.11700
H1183       H  0.78692848  0.87142484  0.56598295     0.08300
H1184       H  0.78307189  0.87223176  0.52949947     0.11100
C1185       C  0.81969627  0.86699709  0.68894073    -0.03500
C1186       C  0.81399334  0.87612630  0.70765843    -0.06100
C1187       C  0.81778749  0.86416128  0.72526144    -0.21200
C1188       C  0.82771158  0.84298336  0.72459766     0.24500
C1189       C  0.83241637  0.83328398  0.70582380    -0.18800
C1190       C  0.82835499  0.84520796  0.68810958    -0.08700
C1191       C  0.83423808  0.83245891  0.74384317    -0.19000
C1192       C  0.85267679  0.81979457  0.74564659    -0.23800
C1193       C  0.86313174  0.81477622  0.76530239     0.26600
C1194       C  0.88631012  0.81159292  0.76585895    -0.20600
C1195       C  0.89737541  0.80927193  0.78411948    -0.10200
C1196       C  0.88545759  0.80987678  0.80229530    -0.10800
C1197       C  0.86209129  0.81198415  0.80175430    -0.03700
C1198       C  0.85099322  0.81437421  0.78341844    -0.18800
H1199       H  0.80690453  0.89272496  0.70873964     0.10300
H1200       H  0.81383769  0.87190645  0.73951249     0.10400
H1201       H  0.83950258  0.81668977  0.70479121     0.10000
H1202       H  0.83266157  0.83769944  0.67384881     0.11100
H1203       H  0.82572648  0.83826860  0.75723539     0.11200
H1204       H  0.86230507  0.81578267  0.73231462     0.13100
H1205       H  0.89602784  0.81166083  0.75213352     0.09600
H1206       H  0.91536162  0.80731478  0.78397408     0.11700
H1207       H  0.85241734  0.81209584  0.81549452     0.08300
H1208       H  0.83300319  0.81603696  0.78353881     0.11100
C1209       C  0.77883575  0.95052405  0.69123691    -0.03500
C1210       C  0.79387095  0.94548223  0.70668484    -0.06100
C1211       C  0.79105709  0.95439591  0.72577051    -0.21200
C1212       C  0.77346641  0.96913869  0.72993130     0.24500
C1213       C  0.75792194  0.97393523  0.71461551    -0.18800
C1214       C  0.76048974  0.96444739  0.69538420    -0.08700
C1215       C  0.77300096  0.97922819  0.75033564    -0.19000
C1216       C  0.76344709  0.99887032  0.75531323    -0.23800
C1217       C  0.76867692  0.00993715  0.77482010     0.26600
C1218       C  0.75270876  0.02321244  0.78469622    -0.20600
C1219       C  0.75793939  0.03390133  0.80289878    -0.10200
C1220       C  0.77940355  0.03182430  0.81129899    -0.10800
C1221       C  0.79537281  0.01883927  0.80114607    -0.03700
C1222       C  0.79014133  0.00814631  0.78320790    -0.18800
H1223       H  0.80818244  0.93486760  0.70386567     0.10300
H1224       H  0.80325968  0.95032927  0.73720030     0.10400
H1225       H  0.74398090  0.98500239  0.71737690     0.10000
H1226       H  0.74877197  0.96868881  0.68361896     0.11100
H1227       H  0.78301551  0.97079572  0.76162493     0.11200
H1228       H  0.75266718  0.00750820  0.74478274     0.13100
H1229       H  0.73616123  0.02517219  0.77839727     0.09600
H1230       H  0.74532989  0.04396270  0.81024699     0.11700
H1231       H  0.81213710  0.01699131  0.80699778     0.08300
H1232       H  0.80321043  0.99886702  0.77569057     0.11100
C1233       C  0.03898005  0.77600422  0.30245046    -0.03500
C1234       C  0.02939781  0.75477022  0.29973274    -0.06100
C1235       C  0.01900050  0.74929259  0.28147289    -0.21200
C1236       C  0.01858445  0.76469533  0.26550568     0.24500
C1237       C  0.02880001  0.78565895  0.26819304    -0.18800
C1238       C  0.03880681  0.79119611  0.28637773    -0.08700
C1239       C  0.00571165  0.75977264  0.24686955    -0.19000
C1240       C  0.01144748  0.76887015  0.22906503    -0.23800
C1241       C  0.99680661  0.77019627  0.21103341     0.26600
C1242       C  0.00213102  0.78652562  0.19669019    -0.20600
C1243       C  0.98809032  0.79057320  0.18047136    -0.10200
C1244       C  0.96844317  0.77812380  0.17783264    -0.10800
C1245       C  0.96350966  0.76086896  0.19147488    -0.03700
C1246       C  0.97750803  0.75702595  0.20810321    -0.18800
H1247       H  0.02921978  0.74278126  0.31191405     0.10300
H1248       H  0.01103254  0.73313764  0.27988786     0.10400
H1249       H  0.02824941  0.79830453  0.25658651     0.10000
H1250       H  0.04612428  0.80766414  0.28798157     0.11100
H1251       H  0.99061578  0.74987077  0.24829219     0.11200
H1252       H  0.02716867  0.77789832  0.22814339     0.13100
H1253       H  0.01686616  0.79686508  0.19841733     0.09600
H1254       H  0.99245782  0.80382628  0.17007525     0.11700
H1255       H  0.94844959  0.75103486  0.18973636     0.08300
H1256       H  0.97301069  0.74402333  0.21864249     0.11100
C1257       C  0.12791260  0.81633461  0.30613222    -0.03500
C1258       C  0.15037306  0.82232483  0.30898423    -0.06100
C1259       C  0.16408522  0.82694167  0.29251273    -0.21200
C1260       C  0.15571801  0.82534418  0.27292831     0.24500
C1261       C  0.13354675  0.81818206  0.27007764    -0.18800
C1262       C  0.11981920  0.81371893  0.28652248    -0.08700
C1263       C  0.16925222  0.83438179  0.25614637    -0.19000
C1264       C  0.16526938  0.82947122  0.23681445    -0.23800
C1265       C  0.17401815  0.84312855  0.22000326     0.26600
C1266       C  0.17492731  0.83375196  0.20076540    -0.20600
C1267       C  0.17979929  0.84706572  0.18409303    -0.10200
C1268       C  0.18350289  0.87012012  0.18634418    -0.10800
C1269       C  0.18336280  0.87937140  0.20569011    -0.03700
C1270       C  0.17864062  0.86604298  0.22235332    -0.18800
H1271       H  0.15708968  0.82439608  0.32393595     0.10300
H1272       H  0.18103645  0.83258155  0.29509240     0.10400
H1273       H  0.12624244  0.81727068  0.25528202     0.10000
H1274       H  0.10260660  0.80898367  0.28386336     0.11100
H1275       H  0.18200123  0.84660459  0.25985130     0.11200
H1276       H  0.15422413  0.81571392  0.23305808     0.13100
H1277       H  0.17121091  0.81620571  0.19856814     0.09600
H1278       H  0.17984537  0.83944156  0.16937526     0.11700
H1279       H  0.18618269  0.89708023  0.20791480     0.08300
H1280       H  0.17745127  0.87404244  0.23685302     0.11100
C1281       C  0.86388196  0.88692316  0.37765756    -0.03500
C1282       C  0.86580895  0.86895176  0.39118270    -0.06100
C1283       C  0.88636822  0.85814997  0.39387781    -0.21200
C1284       C  0.90543464  0.86529946  0.38336913     0.24500
C1285       C  0.90352294  0.88357770  0.37016350    -0.18800
C1286       C  0.88305412  0.89427463  0.36742703    -0.08700
C1287       C  0.92667307  0.85250314  0.38514538    -0.19000
C1288       C  0.94675085  0.86205943  0.38186794    -0.23800
C1289       C  0.96844415  0.84997983  0.38022546     0.26600
C1290       C  0.98771068  0.86283713  0.37688434    -0.20600
C1291       C  0.00821272  0.85269908  0.37290866    -0.10200
C1292       C  0.01007194  0.82931138  0.37212328    -0.10800
C1293       C  0.99104272  0.81629243  0.37629412    -0.03700
C1294       C  0.97040012  0.82648953  0.38028259    -0.18800
H1295       H  0.85127685  0.86268798  0.39909155     0.10300
H1296       H  0.88731491  0.84395283  0.40394916     0.10400
H1297       H  0.91755027  0.88911970  0.36120165     0.10000
H1298       H  0.88210890  0.90786374  0.35670710     0.11100
H1299       H  0.92547185  0.83493059  0.38898203     0.11200
H1300       H  0.94738572  0.88002967  0.37960496     0.13100
H1301       H  0.98680477  0.88092831  0.37674039     0.09600
H1302       H  0.02249713  0.86328528  0.36984751     0.11700
H1303       H  0.99194200  0.79822159  0.37587114     0.08300
H1304       H  0.95607491  0.81583921  0.38271520     0.11100
C1305       C  0.10874073  0.86974190  0.37494364    -0.03500
C1306       C  0.12411637  0.87246742  0.39070412    -0.06100
C1307       C  0.13397553  0.89344539  0.39437629    -0.21200
C1308       C  0.12848941  0.91218553  0.38256855     0.24500
C1309       C  0.11265397  0.90942000  0.36716450    -0.18800
C1310       C  0.10289563  0.88862261  0.36352106    -0.08700
C1311       C  0.14084868  0.93380348  0.38520483    -0.19000
C1312       C  0.13257308  0.95354433  0.37875698    -0.23800
C1313       C  0.14560001  0.97467374  0.37650002     0.26600
C1314       C  0.13859166  0.98969253  0.36163923    -0.20600
C1315       C  0.15003714  0.00962668  0.35820376    -0.10200
C1316       C  0.16879629  0.01548093  0.36974138    -0.10800
C1317       C  0.17570714  0.00069529  0.38500334    -0.03700
C1318       C  0.16428745  0.98036492  0.38829144    -0.18800
H1319       H  0.12913421  0.85825569  0.39970425     0.10300
H1320       H  0.14626737  0.89493868  0.40620155     0.10400
H1321       H  0.10842026  0.92296793  0.35712614     0.10000
H1322       H  0.09125201  0.88721259  0.35117189     0.11100
H1323       H  0.15757859  0.93312633  0.39143732     0.11200
H1324       H  0.11560349  0.95403840  0.37308534     0.13100
H1325       H  0.12428065  0.98581962  0.35232860     0.09600
H1326       H  0.14406494  0.02050572  0.34637932     0.11700
H1327       H  0.18999871  0.00474129  0.39424862     0.08300
H1328       H  0.16992750  0.96933959  0.40011684     0.11100
C1329       C  0.87005091  0.88251034  0.61692142    -0.03500
C1330       C  0.87148386  0.86574529  0.60221419    -0.06100
C1331       C  0.89184153  0.85495935  0.59840614    -0.21200
C1332       C  0.91123082  0.86095528  0.60894469     0.24500
C1333       C  0.90993776  0.87832894  0.62310074    -0.18800
C1334       C  0.88962231  0.88896349  0.62700453    -0.08700
C1335       C  0.93204354  0.84764729  0.60625055    -0.19000
C1336       C  0.95251746  0.85622751  0.60952978    -0.23800
C1337       C  0.97354721  0.84297318  0.60943150     0.26600
C1338       C  0.99380929  0.85444066  0.60706238    -0.20600
C1339       C  0.01417006  0.84344269  0.60956782    -0.10200
C1340       C  0.01482619  0.82064411  0.61467381    -0.10800
C1341       C  0.99458418  0.80882146  0.61619200    -0.03700
C1342       C  0.97409929  0.81988656  0.61365913    -0.18800
H1343       H  0.85669646  0.86028169  0.59427064     0.10300
H1344       H  0.89235044  0.84155937  0.58751525     0.10400
H1345       H  0.92432447  0.88305831  0.63193633     0.10000
H1346       H  0.88910364  0.90171671  0.63850322     0.11100
H1347       H  0.93035975  0.83041336  0.60143106     0.11200
H1348       H  0.95410191  0.87400610  0.61246046     0.13100
H1349       H  0.99389595  0.87220417  0.60386636     0.09600
H1350       H  0.02943966  0.85304933  0.60823801     0.11700
H1351       H  0.99453589  0.79131706  0.62036109     0.08300
H1352       H  0.95883539  0.81057239  0.61604964     0.11100
C1353       C  0.18003544  0.00255932  0.61544545    -0.03500
C1354       C  0.19425924  0.98395996  0.61394746    -0.06100
C1355       C  0.18576007  0.96293390  0.60877689    -0.21200
C1356       C  0.16287522  0.95994311  0.60492875     0.24500
C1357       C  0.14888067  0.97889847  0.60523825    -0.18800
C1358       C  0.15734452  0.99987308  0.61061894    -0.08700
C1359       C  0.15430867  0.93671110  0.60179287    -0.19000
C1360       C  0.13265783  0.93090016  0.60401727    -0.23800
C1361       C  0.12464435  0.90735858  0.60546746     0.26600
C1362       C  0.10512661  0.90329287  0.61654232    -0.20600
C1363       C  0.09799381  0.88150862  0.62036279    -0.10200
C1364       C  0.10996661  0.86310858  0.61290254    -0.10800
C1365       C  0.12871275  0.86705384  0.60066436    -0.03700
C1366       C  0.13608605  0.88902062  0.59703619    -0.18800
H1367       H  0.21182959  0.98544604  0.61754821     0.10300
H1368       H  0.19702318  0.94877058  0.60849276     0.10400
H1369       H  0.13133283  0.97773790  0.60162477     0.10000
H1370       H  0.14600525  0.01394923  0.61134033     0.11100
H1371       H  0.16666129  0.92362247  0.59979545     0.11200
H1372       H  0.12044691  0.94369669  0.60747866     0.13100
H1373       H  0.09581759  0.91703692  0.62302980     0.09600
H1374       H  0.08333406  0.87904803  0.62965632     0.11700
H1375       H  0.13819862  0.85318543  0.59464691     0.08300
H1376       H  0.15083730  0.89152728  0.58791761     0.11100
C1377       C  0.09090255  0.77378279  0.56494756    -0.03500
C1378       C  0.11169988  0.77377024  0.55514343    -0.06100
C1379       C  0.11291415  0.77246571  0.53423854    -0.21200
C1380       C  0.09343335  0.77103422  0.52260736     0.24500
C1381       C  0.07260210  0.77042227  0.53246518    -0.18800
C1382       C  0.07139527  0.77171460  0.55338766    -0.08700
C1383       C  0.09562491  0.77219949  0.50036966    -0.19000
C1384       C  0.07922289  0.76672892  0.48742218    -0.23800
C1385       C  0.08057242  0.77050746  0.46534564     0.26600
C1386       C  0.06063521  0.77065511  0.45428072    -0.20600
C1387       C  0.06081394  0.77501502  0.43367550    -0.10200
C1388       C  0.08101960  0.77918988  0.42356884    -0.10800
C1389       C  0.10104986  0.77857696  0.43451523    -0.03700
C1390       C  0.10087907  0.77420879  0.45513464    -0.18800
H1391       H  0.12706696  0.77523302  0.56358630     0.10300
H1392       H  0.12917033  0.77303032  0.52708912     0.10400
H1393       H  0.05710176  0.76985768  0.52421082     0.10000
H1394       H  0.05510060  0.77167358  0.56047139     0.11100
H1395       H  0.11129887  0.77868772  0.49468562     0.11200
H1396       H  0.06360819  0.76010518  0.49314714     0.13100
H1397       H  0.04476677  0.76769758  0.46166702     0.09600
H1398       H  0.04508780  0.77513446  0.42567683     0.11700
H1399       H  0.11693608  0.78141874  0.42713625     0.08300
H1400       H  0.11673822  0.77355358  0.46279821     0.11100
C1401       C  0.04090530  0.76781218  0.68379621    -0.03500
C1402       C  0.03749417  0.74512155  0.68850386    -0.06100
C1403       C  0.02727921  0.73901415  0.70673823    -0.21200
C1404       C  0.02085875  0.75547173  0.72062487     0.24500
C1405       C  0.02415844  0.77805749  0.71571440    -0.18800
C1406       C  0.03405606  0.78410962  0.69764596    -0.08700
C1407       C  0.00995885  0.74949852  0.73996184    -0.19000
C1408       C  0.01441841  0.76142329  0.75661217    -0.23800
C1409       C  0.00134766  0.76116186  0.77560008     0.26600
C1410       C  0.00929782  0.77445006  0.79137172    -0.20600
C1411       C  0.99626620  0.77825213  0.80833300    -0.10200
C1412       C  0.97503548  0.76857352  0.81015811    -0.10800
C1413       C  0.96738853  0.75418830  0.79502472    -0.03700
C1414       C  0.98037910  0.75062679  0.77772697    -0.18800
H1415       H  0.04252743  0.73220305  0.67808468     0.10300
H1416       H  0.02464128  0.72149538  0.71011284     0.10400
H1417       H  0.01874478  0.79120100  0.72574921     0.10000
H1418       H  0.03634009  0.80174627  0.69456616     0.11100
H1419       H  0.99786742  0.73599952  0.74017291     0.11200
H1420       H  0.02802188  0.77345890  0.75588019     0.13100
H1421       H  0.02531546  0.78280351  0.79020146     0.09600
H1422       H  0.00255435  0.78933822  0.81985948     0.11700
H1423       H  0.95092824  0.74675247  0.79607062     0.08300
H1424       H  0.97349891  0.74050821  0.76582329     0.11100
C1425       C  0.12896412  0.81193691  0.68434687    -0.03500
C1426       C  0.15185521  0.81672401  0.68240820    -0.06100
C1427       C  0.16450896  0.82243617  0.69924012    -0.21200
C1428       C  0.15462313  0.82316548  0.71831413     0.24500
C1429       C  0.13191642  0.81748070  0.72034401    -0.18800
C1430       C  0.11926673  0.81187824  0.70354318    -0.08700
C1431       C  0.16750363  0.83250537  0.73531209    -0.19000
C1432       C  0.16234577  0.82829182  0.75458311    -0.23800
C1433       C  0.17151872  0.84129121  0.77157401     0.26600
C1434       C  0.17061613  0.83200886  0.79087364    -0.20600
C1435       C  0.17628333  0.84479281  0.80760532    -0.10200
C1436       C  0.18267040  0.86727095  0.80537509    -0.10800
C1437       C  0.18419660  0.87640867  0.78600591    -0.03700
C1438       C  0.17866053  0.86357196  0.76925752    -0.18800
H1439       H  0.15981437  0.81684475  0.66781475     0.10300
H1440       H  0.18192003  0.82690602  0.69728794     0.10400
H1441       H  0.12350148  0.81846034  0.73468025     0.10000
H1442       H  0.10166827  0.80824857  0.70553805     0.11100
H1443       H  0.18111123  0.84384965  0.73175304     0.11200
H1444       H  0.15031193  0.81528514  0.75814154     0.13100
H1445       H  0.16496805  0.81496860  0.79305345     0.09600
H1446       H  0.17495680  0.83725654  0.82233794     0.11700
H1447       H  0.18907333  0.89367797  0.78381493     0.08300
H1448       H  0.17896586  0.87153580  0.75468449     0.11100
C1449       C  0.86279521  0.19153508  0.30645397    -0.03500
C1450       C  0.87118992  0.19851944  0.28775416    -0.06100
C1451       C  0.85868628  0.19544355  0.27035638    -0.21200
C1452       C  0.83774364  0.18504931  0.27129326     0.24500
C1453       C  0.82846157  0.17994101  0.29017015    -0.18800
C1454       C  0.84092332  0.18318499  0.30764169    -0.08700
C1455       C  0.82740638  0.17747325  0.25232810    -0.19000
C1456       C  0.81656931  0.15781680  0.25120758    -0.23800
C1457       C  0.81208807  0.14618303  0.23203918     0.26600
C1458       C  0.81093536  0.12278598  0.23230382    -0.20600
C1459       C  0.80869571  0.11080849  0.21451711    -0.10200
C1460       C  0.80738280  0.12200276  0.19601834    -0.10800
C1461       C  0.80769550  0.14549508  0.19576624    -0.03700
C1462       C  0.80998827  0.15751206  0.21362623    -0.18800
H1463       H  0.88785676  0.20543799  0.28644502     0.10300
H1464       H  0.86604764  0.19979789  0.25600670     0.10400
H1465       H  0.81198267  0.17262120  0.29139498     0.10000
H1466       H  0.83392814  0.17799614  0.32190214     0.11100
H1467       H  0.83222100  0.18612903  0.23866216     0.11200
H1468       H  0.81379859  0.14825817  0.26485731     0.13100
H1469       H  0.81243789  0.11366999  0.24629633     0.09600
H1470       H  0.80834884  0.09272770  0.21526515     0.11700
H1471       H  0.80641833  0.15458999  0.18175864     0.08300
H1472       H  0.81017670  0.17557332  0.21292044     0.11100
C1473       C  0.95299590  0.22936839  0.30708925    -0.03500
C1474       C  0.96312496  0.25055702  0.30673699    -0.06100
C1475       C  0.97525664  0.25756915  0.28976202    -0.21200
C1476       C  0.97682501  0.24381667  0.27271886     0.24500
C1477       C  0.96578327  0.22310803  0.27284327    -0.18800
C1478       C  0.95413631  0.21596490  0.28981013    -0.08700
C1479       C  0.99199056  0.24978936  0.25582897    -0.19000
C1480       C  0.98739218  0.24407621  0.23672606    -0.23800
C1481       C  0.00413343  0.24425679  0.22021487     0.26600
C1482       C  0.99664933  0.24580338  0.20029653    -0.20600
C1483       C  0.01112920  0.24132390  0.18427879    -0.10200
C1484       C  0.03325805  0.23489164  0.18793266    -0.10800
C1485       C  0.04110389  0.23429003  0.20774705    -0.03700
C1486       C  0.02674395  0.23917068  0.22377513    -0.18800
H1487       H  0.96257221  0.26118511  0.31985963     0.10300
H1488       H  0.98379638  0.27352077  0.29007158     0.10400
H1489       H  0.96707244  0.21185571  0.26018820     0.10000
H1490       H  0.94643867  0.19957602  0.28957511     0.11100
H1491       H  0.00768471  0.25798186  0.25935287     0.11200
H1492       H  0.97084697  0.23775789  0.23316171     0.13100
H1493       H  0.97925937  0.24935409  0.19716588     0.09600
H1494       H  0.00461729  0.24126744  0.16912745     0.11700
H1495       H  0.05796205  0.22872378  0.21086992     0.08300
H1496       H  0.03292481  0.23721593  0.23892537     0.11100
C1497       C  0.12718032  0.11259416  0.37634553    -0.03500
C1498       C  0.12404214  0.13467478  0.38298438    -0.06100
C1499       C  0.10259281  0.14315536  0.38603408    -0.21200
C1500       C  0.08371923  0.12987839  0.38243895     0.24500
C1501       C  0.08683640  0.10734274  0.37694649    -0.18800
C1502       C  0.10837166  0.09883005  0.37387452    -0.08700
C1503       C  0.06132321  0.14056177  0.38393646    -0.19000
C1504       C  0.04293958  0.13263400  0.37474044    -0.23800
C1505       C  0.02127676  0.14476368  0.37414473     0.26600
C1506       C  0.00173674  0.13252631  0.37043736    -0.20600
C1507       C  0.98124627  0.14336447  0.36807211    -0.10200
C1508       C  0.97984413  0.16679640  0.36913422    -0.10800
C1509       C  0.99933330  0.17907923  0.37318055    -0.03700
C1510       C  0.01985562  0.16820835  0.37561011    -0.18800
H1511       H  0.13815963  0.14571679  0.38520232     0.10300
H1512       H  0.10074005  0.16045603  0.39051169     0.10400
H1513       H  0.07280671  0.09624029  0.37478082     0.10000
H1514       H  0.11024936  0.08167538  0.36900940     0.11100
H1515       H  0.06035778  0.15628734  0.39196464     0.11200
H1516       H  0.04365452  0.11685497  0.36681418     0.13100
H1517       H  0.00238187  0.11449963  0.36907401     0.09600
H1518       H  0.96658198  0.13337361  0.36490579     0.11700
H1519       H  0.99886535  0.19715231  0.37386864     0.08300
H1520       H  0.03461381  0.17833552  0.37781405     0.11100
C1521       C  0.88343031  0.12766714  0.37021516    -0.03500
C1522       C  0.89047517  0.11019090  0.35764021    -0.06100
C1523       C  0.88352863  0.08826541  0.36111851    -0.21200
C1524       C  0.86909003  0.08316302  0.37706443     0.24500
C1525       C  0.86230086  0.10050568  0.38998213    -0.18800
C1526       C  0.86948320  0.12256105  0.38660537    -0.08700
C1527       C  0.86174530  0.05953291  0.37945965    -0.19000
C1528       C  0.84245439  0.05320277  0.38827596    -0.23800
C1529       C  0.83415147  0.02972235  0.38742042     0.26600
C1530       C  0.81103229  0.02573547  0.38708745    -0.20600
C1531       C  0.80268470  0.00415177  0.38386203    -0.10200
C1532       C  0.81733279  0.98604595  0.38109356    -0.10800
C1533       C  0.84044719  0.98982789  0.38279953    -0.03700
C1534       C  0.84876538  0.01137275  0.38599431    -0.18800
H1535       H  0.90132576  0.11345483  0.34495312     0.10300
H1536       H  0.88915358  0.07525381  0.35101501     0.10400
H1537       H  0.85160521  0.09711034  0.40272204     0.10000
H1538       H  0.86385194  0.13564217  0.39661181     0.11100
H1539       H  0.87171315  0.04701813  0.37178933     0.11200
H1540       H  0.83130095  0.06582663  0.39430319     0.13100
H1541       H  0.79939445  0.03951478  0.38840600     0.09600
H1542       H  0.78479331  0.00182214  0.38272129     0.11700
H1543       H  0.85221204  0.97622840  0.38101246     0.08300
H1544       H  0.86666405  0.01361665  0.38698791     0.11100
C1545       C  0.99318031  0.17130860  0.61614589    -0.03500
C1546       C  0.01178001  0.18563485  0.61513123    -0.06100
C1547       C  0.03327167  0.17691857  0.61223625    -0.21200
C1548       C  0.03657259  0.15376568  0.61042762     0.24500
C1549       C  0.01776646  0.13967810  0.60985520    -0.18800
C1550       C  0.99636052  0.14834302  0.61278782    -0.08700
C1551       C  0.05972888  0.14470081  0.61006274    -0.19000
C1552       C  0.06474438  0.12432639  0.61750043    -0.23800
C1553       C  0.08780672  0.11540777  0.61963665     0.26600
C1554       C  0.09149056  0.09827182  0.63364906    -0.20600
C1555       C  0.11291471  0.08977284  0.63683300    -0.10200
C1556       C  0.13121916  0.09806283  0.62590631    -0.10800
C1557       C  0.12746660  0.11467818  0.61133108    -0.03700
C1558       C  0.10598074  0.12328854  0.60821415    -0.18800
H1559       H  0.00988401  0.20341815  0.61758847     0.10300
H1560       H  0.04744833  0.18818268  0.61239608     0.10400
H1561       H  0.01952113  0.12187260  0.60756066     0.10000
H1562       H  0.98234746  0.13688746  0.61313409     0.11100
H1563       H  0.07305196  0.15587239  0.60538793     0.11200
H1564       H  0.05144955  0.11422490  0.62391441     0.13100
H1565       H  0.07777418  0.09172858  0.64252109     0.09600
H1566       H  0.11517765  0.07693566  0.64811439     0.11700
H1567       H  0.14120848  0.12134389  0.60258541     0.08300
H1568       H  0.10373006  0.13600939  0.59685843     0.11100
C1569       C  0.89881737  0.12130636  0.62172920    -0.03500
C1570       C  0.90947112  0.10301828  0.63087235    -0.06100
C1571       C  0.90136637  0.08133823  0.62828437    -0.21200
C1572       C  0.88225718  0.07729645  0.61667552     0.24500
C1573       C  0.87214061  0.09545652  0.60670597    -0.18800
C1574       C  0.88039017  0.11725265  0.60920457    -0.08700
C1575       C  0.87354412  0.05395570  0.61579971    -0.19000
C1576       C  0.85248421  0.04837653  0.61057416    -0.23800
C1577       C  0.84351964  0.02514632  0.61228626     0.26600
C1578       C  0.82034290  0.02199726  0.61417979    -0.20600
C1579       C  0.81141492  0.00065849  0.61755779    -0.10200
C1580       C  0.82550221  0.98193244  0.61901300    -0.10800
C1581       C  0.84856715  0.98491286  0.61598748    -0.03700
C1582       C  0.85746949  0.00620026  0.61256679    -0.18800
H1583       H  0.92381550  0.10551415  0.64049280     0.10300
H1584       H  0.90970899  0.06771302  0.63593869     0.10400
H1585       H  0.85780590  0.09302310  0.59711957     0.10000
H1586       H  0.87186800  0.13099765  0.60191754     0.11100
H1587       H  0.88460248  0.04103710  0.62140664     0.11200
H1588       H  0.84074784  0.06142846  0.60655208     0.13100
H1589       H  0.80914486  0.03620623  0.61374367     0.09600
H1590       H  0.79356240  0.99895782  0.61971163     0.11700
H1591       H  0.85988774  0.97082208  0.61673764     0.08300
H1592       H  0.87529455  0.00764186  0.61031051     0.11100
C1593       C  0.91051032  0.20982120  0.57003876    -0.03500
C1594       C  0.88912689  0.20817633  0.56143348    -0.06100
C1595       C  0.88638018  0.20889451  0.54058670    -0.21200
C1596       C  0.90490140  0.21105575  0.52777274     0.24500
C1597       C  0.92627749  0.21321533  0.53640354    -0.18800
C1598       C  0.92902100  0.21253421  0.55725945    -0.08700
C1599       C  0.90114080  0.21156456  0.50562242    -0.19000
C1600       C  0.91712760  0.20652966  0.49205145    -0.23800
C1601       C  0.91422199  0.20711567  0.46978948     0.26600
C1602       C  0.93344176  0.20526892  0.45780298    -0.20600
C1603       C  0.93201852  0.20567063  0.43689508    -0.10200
C1604       C  0.91124920  0.20777712  0.42728245    -0.10800
C1605       C  0.89188716  0.20938595  0.43917994    -0.03700
C1606       C  0.89331792  0.20908684  0.46020106    -0.18800
H1607       H  0.87446454  0.20620160  0.57080527     0.10300
H1608       H  0.86970485  0.20747209  0.53443074     0.10400
H1609       H  0.94095377  0.21576529  0.52721973     0.10000
H1610       H  0.94570277  0.21405240  0.56336776     0.11100
H1611       H  0.88449169  0.21585394  0.50059118     0.11200
H1612       H  0.93351801  0.20169378  0.49740484     0.13100
H1613       H  0.94975309  0.20360960  0.46465411     0.09600
H1614       H  0.94728503  0.20425322  0.42824918     0.11700
H1615       H  0.87561633  0.21094696  0.43224826     0.08300
H1616       H  0.87797669  0.21015737  0.46869167     0.11100
C1617       C  0.97295859  0.22196431  0.68336346    -0.03500
C1618       C  0.99485351  0.21368888  0.68432843    -0.06100
C1619       C  0.00761631  0.21622612  0.70164153    -0.21200
C1620       C  0.99882305  0.22689978  0.71862971     0.24500
C1621       C  0.97738797  0.23664655  0.71726751    -0.18800
C1622       C  0.96457271  0.23424991  0.69966711    -0.08700
C1623       C  0.01154155  0.22452484  0.73776880    -0.19000
C1624       C  0.00704038  0.23493488  0.75524133    -0.23800
C1625       C  0.01858078  0.22823912  0.77415406     0.26600
C1626       C  0.02434759  0.24425834  0.78864848    -0.20600
C1627       C  0.03496627  0.23781408  0.80655560    -0.10200
C1628       C  0.03945083  0.21513273  0.81051287    -0.10800
C1629       C  0.03336269  0.19916641  0.79607323    -0.03700
C1630       C  0.02313741  0.20561107  0.77815750    -0.18800
H1631       H  0.00169065  0.20410289  0.67197729     0.10300
H1632       H  0.02403144  0.20862375  0.70212801     0.10400
H1633       H  0.96991109  0.24485822  0.73005441     0.10000
H1634       H  0.94759985  0.24049146  0.69937423     0.11100
H1635       H  0.02520886  0.21256584  0.73762390     0.11200
H1636       H  0.99485248  0.24832474  0.75585022     0.13100
H1637       H  0.02082743  0.26177184  0.78601989     0.09600
H1638       H  0.03936009  0.25051165  0.81741131     0.11700
H1639       H  0.03651859  0.18156393  0.79860347     0.08300
H1640       H  0.01837340  0.19274884  0.76759130     0.11100
C1641       C  0.82462979  0.12182463  0.81398323    -0.03500
C1642       C  0.83316368  0.14352154  0.81650194    -0.06100
C1643       C  0.84118777  0.15555957  0.79996430    -0.21200
C1644       C  0.84047525  0.14627333  0.78065325     0.24500
C1645       C  0.83132242  0.12480191  0.77814065    -0.18800
C1646       C  0.82344338  0.11279008  0.79459691    -0.08700
C1647       C  0.85127168  0.15821670  0.76370109    -0.19000
C1648       C  0.84549181  0.15453154  0.74449591    -0.23800
C1649       C  0.85837310  0.16268779  0.72693620     0.26600
C1650       C  0.84821386  0.16180627  0.70802383    -0.20600
C1651       C  0.86034823  0.16679750  0.69072004    -0.10200
C1652       C  0.88304524  0.17261438  0.69192664    -0.10800
C1653       C  0.89316387  0.17401432  0.71087965    -0.03700
C1654       C  0.88097796  0.16906110  0.72823964    -0.18800
H1655       H  0.83444621  0.15082247  0.83130297     0.10300
H1656       H  0.84839221  0.17196599  0.80230206     0.10400
H1657       H  0.83114937  0.11670194  0.76365673     0.10000
H1658       H  0.81704343  0.09606776  0.79218028     0.11100
H1659       H  0.86454663  0.16991656  0.76722886     0.11200
H1660       H  0.83076615  0.14453853  0.74133150     0.13100
H1661       H  0.83090566  0.15674970  0.70657931     0.09600
H1662       H  0.85204512  0.16555786  0.67634800     0.11700
H1663       H  0.91063854  0.17844497  0.71227502     0.08300
H1664       H  0.88962289  0.16938687  0.74245468     0.11100
C1665       C  0.26846631  0.11368478  0.64126785    -0.03500
C1666       C  0.26932429  0.12829077  0.65771989    -0.06100
C1667       C  0.28743428  0.14270245  0.66034833    -0.21200
C1668       C  0.30511213  0.14324059  0.64648120     0.24500
C1669       C  0.30471293  0.12797921  0.63034164    -0.18800
C1670       C  0.28658996  0.11328176  0.62784480    -0.08700
C1671       C  0.32270955  0.16074436  0.64924522    -0.19000
C1672       C  0.33844120  0.16628242  0.63556321    -0.23800
C1673       C  0.35336995  0.18621322  0.63753167     0.26600
C1674       C  0.37312964  0.18721668  0.62613427    -0.20600
C1675       C  0.38634787  0.20658801  0.62591010    -0.10200
C1676       C  0.37990048  0.22558490  0.63685851    -0.10800
C1677       C  0.36045541  0.22440226  0.64868504    -0.03700
C1678       C  0.34735655  0.20501664  0.64903845    -0.18800
H1679       H  0.25571501  0.12887686  0.66843888     0.10300
H1680       H  0.28724152  0.15403834  0.67300536     0.10400
H1681       H  0.31805776  0.12742142  0.61943444     0.10000
H1682       H  0.28636581  0.10220494  0.61501493     0.11100
H1683       H  0.32185149  0.17029307  0.66304630     0.11200
H1684       H  0.34020774  0.15647390  0.62200905     0.13100
H1685       H  0.37811522  0.17310389  0.61700690     0.09600
H1686       H  0.40114609  0.20697571  0.61655800     0.11700
H1687       H  0.35497851  0.23874430  0.65728237     0.08300
H1688       H  0.33202214  0.20534572  0.65761230     0.11100
C1689       C  0.37522295  0.23167375  0.35621305    -0.03500
C1690       C  0.35891733  0.23022863  0.34110029    -0.06100
C1691       C  0.34606716  0.21084305  0.33876113    -0.21200
C1692       C  0.34878069  0.19252842  0.35171969     0.24500
C1693       C  0.36574881  0.19356790  0.36635343    -0.18800
C1694       C  0.37889729  0.21290069  0.36849079    -0.08700
C1695       C  0.33304728  0.17317196  0.34990821    -0.19000
C1696       C  0.32698335  0.16033234  0.36565989    -0.23800
C1697       C  0.30788952  0.14424918  0.36525538     0.26600
C1698       C  0.29543804  0.14141499  0.38290441    -0.20600
C1699       C  0.27634576  0.12800898  0.38315358    -0.10200
C1700       C  0.26942288  0.11650522  0.36588651    -0.10800
C1701       C  0.28249212  0.11822785  0.34840104    -0.03700
C1702       C  0.30149357  0.13217810  0.34801564    -0.18800
H1703       H  0.35582742  0.24429199  0.33123635     0.10300
H1704       H  0.33334682  0.21049100  0.32722538     0.10400
H1705       H  0.36881716  0.17957292  0.37626538     0.10000
H1706       H  0.39139415  0.21344466  0.38020422     0.11100
H1707       H  0.32419787  0.17120297  0.33580609     0.11200
H1708       H  0.33430768  0.16374631  0.38022627     0.13100
H1709       H  0.30000424  0.15033304  0.39642622     0.09600
H1710       H  0.26664036  0.12698337  0.39685719     0.11700
H1711       H  0.27745516  0.10964850  0.33485083     0.08300
H1712       H  0.31099966  0.13364127  0.33425521     0.11100
C1713       C  0.40522640  0.28436615  0.42683494    -0.03500
C1714       C  0.38463277  0.28073939  0.43646626    -0.06100
C1715       C  0.38328390  0.28020150  0.45742093    -0.21200
C1716       C  0.40244858  0.28318493  0.46923569     0.24500
C1717       C  0.42305307  0.28697476  0.45957649    -0.18800
C1718       C  0.42441720  0.28740942  0.43863787    -0.08700
C1719       C  0.40010876  0.28313430  0.49148763    -0.19000
C1720       C  0.41715127  0.27860905  0.50406539    -0.23800
C1721       C  0.41555200  0.27890329  0.52638846     0.26600
C1722       C  0.43549701  0.27852097  0.53743187    -0.20600
C1723       C  0.43516471  0.27867774  0.55837836    -0.10200
C1724       C  0.41480579  0.27912198  0.56889623    -0.10800
C1725       C  0.39477541  0.27934789  0.55792221    -0.03700
C1726       C  0.39510121  0.27918331  0.53690900    -0.18800
H1727       H  0.36952896  0.27835838  0.42781249     0.10300
H1728       H  0.36718024  0.27742166  0.46444164     0.10400
H1729       H  0.43810599  0.29017914  0.46803295     0.10000
H1730       H  0.44048372  0.29056053  0.43169027     0.11100
H1731       H  0.38365513  0.28674955  0.49744744     0.11200
H1732       H  0.43338748  0.27455612  0.49780434     0.13100
H1733       H  0.45149534  0.27822747  0.52980651     0.09600
H1734       H  0.45092531  0.27853680  0.56632770     0.11700
H1735       H  0.37880542  0.27962799  0.56557318     0.08300
H1736       H  0.37927520  0.27899135  0.52916140     0.11100
C1737       C  0.22888401  0.61204427  0.63377709    -0.03500
C1738       C  0.20976071  0.60544523  0.62308691    -0.06100
C1739       C  0.19017392  0.61835482  0.62382194    -0.21200
C1740       C  0.18915928  0.63793376  0.63544745     0.24500
C1741       C  0.20809868  0.64401429  0.64668762    -0.18800
C1742       C  0.22760338  0.63123293  0.64588104    -0.08700
C1743       C  0.16927724  0.65294574  0.63381838    -0.19000
C1744       C  0.16414751  0.66853852  0.64771007    -0.23800
C1745       C  0.14796282  0.68719447  0.64459568     0.26600
C1746       C  0.15046124  0.70640249  0.65644506    -0.20600
C1747       C  0.13751260  0.72540452  0.65293413    -0.10200
C1748       C  0.12133695  0.72560960  0.63769673    -0.10800
C1749       C  0.11781272  0.70600630  0.62653545    -0.03700
C1750       C  0.13108609  0.68698009  0.62985599    -0.18800
H1751       H  0.21021642  0.59084311  0.61352119     0.10300
H1752       H  0.17595399  0.61335734  0.61485656     0.10400
H1753       H  0.20848141  0.65926566  0.65534956     0.10000
H1754       H  0.24201115  0.63688079  0.65427165     0.11100
H1755       H  0.15960238  0.65192475  0.62011392     0.11200
H1756       H  0.17364328  0.66895125  0.66155376     0.13100
H1757       H  0.16313042  0.70704808  0.66802337     0.09600
H1758       H  0.14045105  0.74014686  0.66196526     0.11700
H1759       H  0.10537594  0.70565605  0.61476064     0.08300
H1760       H  0.12819129  0.67234684  0.62074002     0.11100
C1761       C  0.32984164  0.50949533  0.61321390    -0.03500
C1762       C  0.35318469  0.50873341  0.61093334    -0.06100
C1763       C  0.36425930  0.48831282  0.60874444    -0.21200
C1764       C  0.35237919  0.46807299  0.60870830     0.24500
C1765       C  0.32888527  0.46884816  0.61018805    -0.18800
C1766       C  0.31777013  0.48935142  0.61233565    -0.08700
C1767       C  0.36535276  0.44675222  0.60902772    -0.19000
C1768       C  0.35658060  0.42630566  0.60573089    -0.23800
C1769       C  0.36923160  0.40504542  0.60871787     0.26600
C1770       C  0.36127002  0.38534795  0.59977072    -0.20600
C1771       C  0.37122787  0.36465940  0.60392025    -0.10200
C1772       C  0.38919362  0.36313820  0.61741302    -0.10800
C1773       C  0.39760621  0.38289869  0.62591191    -0.03700
C1774       C  0.38779126  0.40359384  0.62163248    -0.18800
H1775       H  0.36304094  0.52389614  0.61156104     0.10300
H1776       H  0.38232674  0.48830775  0.60769420     0.10400
H1777       H  0.31902017  0.45373032  0.61065101     0.10000
H1778       H  0.29980161  0.48931841  0.61426443     0.11100
H1779       H  0.38304208  0.44813016  0.61233826     0.11200
H1780       H  0.33941372  0.42484765  0.60072381     0.13100
H1781       H  0.34692949  0.38589245  0.58988956     0.09600
H1782       H  0.36422162  0.34974000  0.59723664     0.11700
H1783       H  0.41138224  0.38229208  0.63640975     0.08300
H1784       H  0.39418269  0.41816559  0.62927942     0.11100
C1785       C  0.11570024  0.73174711  0.35523296    -0.03500
C1786       C  0.10991682  0.71282743  0.36663196    -0.06100
C1787       C  0.12330160  0.69357055  0.36614207    -0.21200
C1788       C  0.14253185  0.69261157  0.35400968     0.24500
C1789       C  0.14779010  0.71134723  0.34204665    -0.18800
C1790       C  0.13455716  0.73060365  0.34268464    -0.08700
C1791       C  0.15774500  0.67282635  0.35564732    -0.19000
C1792       C  0.17352999  0.66777303  0.34188130    -0.23800
C1793       C  0.19150193  0.65077484  0.34481788     0.26600
C1794       C  0.21137153  0.65343473  0.33387589    -0.20600
C1795       C  0.22951745  0.63919316  0.33696061    -0.10200
C1796       C  0.22821709  0.62153281  0.35083581    -0.10800
C1797       C  0.20796609  0.61803515  0.36112303    -0.03700
C1798       C  0.18978917  0.63260466  0.35824934    -0.18800
H1799       H  0.09560870  0.71324672  0.37658444     0.10300
H1800       H  0.11889942  0.67954016  0.37564623     0.10400
H1801       H  0.16267219  0.71179453  0.33286620     0.10000
H1802       H  0.13949223  0.74491163  0.33373304     0.11100
H1803       H  0.15648232  0.66283366  0.36919392     0.11200
H1804       H  0.17452444  0.67761602  0.32824036     0.13100
H1805       H  0.21315763  0.66709376  0.32329945     0.09600
H1806       H  0.24476630  0.64222192  0.32861880     0.11700
H1807       H  0.20642787  0.60450200  0.37184491     0.08300
H1808       H  0.17456632  0.62961171  0.36658482     0.11100
C1809       C  0.31574257  0.50904143  0.37335605    -0.03500
C1810       C  0.30145590  0.49045467  0.37469343    -0.06100
C1811       C  0.30990200  0.46937754  0.37984564    -0.21200
C1812       C  0.33277234  0.46638026  0.38376354     0.24500
C1813       C  0.34678465  0.48531036  0.38362072    -0.18800
C1814       C  0.33839105  0.50629676  0.37832215    -0.08700
C1815       C  0.34143312  0.44322527  0.38690536    -0.19000
C1816       C  0.36301713  0.43758963  0.38403022    -0.23800
C1817       C  0.37121677  0.41416137  0.38284773     0.26600
C1818       C  0.39021805  0.41005220  0.37111533    -0.20600
C1819       C  0.39754321  0.38829059  0.36772110    -0.10200
C1820       C  0.38626021  0.36998505  0.37623317    -0.10800
C1821       C  0.36804863  0.37403433  0.38906687    -0.03700
C1822       C  0.36049197  0.39597795  0.39229566    -0.18800
H1823       H  0.28389263  0.49202711  0.37110801     0.10300
H1824       H  0.29863443  0.45520308  0.38007522     0.10400
H1825       H  0.36429171  0.48412341  0.38738421     0.10000
H1826       H  0.34978965  0.52035407  0.37780774     0.11100
H1827       H  0.32922798  0.43009872  0.38947308     0.11200
H1828       H  0.37493812  0.45042198  0.37984298     0.13100
H1829       H  0.39896688  0.42371305  0.36384418     0.09600
H1830       H  0.41179668  0.38576584  0.35795509     0.11700
H1831       H  0.35912334  0.36023918  0.39591689     0.08300
H1832       H  0.34617373  0.39859191  0.40192701     0.11100
C1833       C  0.28271750  0.58628755  0.56400742    -0.03500
C1834       C  0.28466772  0.60735502  0.55480897    -0.06100
C1835       C  0.28429204  0.60933239  0.53392251    -0.21200
C1836       C  0.28170905  0.59038682  0.52177621     0.24500
C1837       C  0.27983092  0.56926721  0.53097992    -0.18800
C1838       C  0.28028231  0.56728048  0.55185668    -0.08700
C1839       C  0.28204770  0.59324022  0.49963870    -0.19000
C1840       C  0.27286113  0.57845540  0.48687025    -0.23800
C1841       C  0.27385317  0.58059997  0.46468543     0.26600
C1842       C  0.27055692  0.56132667  0.45312907    -0.20600
C1843       C  0.27152810  0.56229126  0.43224077    -0.10200
C1844       C  0.27564782  0.58266238  0.42235971    -0.10800
C1845       C  0.27856790  0.60208460  0.43386965    -0.03700
C1846       C  0.27762619  0.60110867  0.45482481    -0.18800
H1847       H  0.28674917  0.62230897  0.56373367     0.10300
H1848       H  0.28600768  0.62575875  0.52721484     0.10400
H1849       H  0.27861082  0.55414376  0.52220878     0.10000
H1850       H  0.27895126  0.55078322  0.55847148     0.11100
H1851       H  0.29017175  0.60812983  0.49385768     0.11200
H1852       H  0.26460208  0.56369362  0.49278173     0.13100
H1853       H  0.26747979  0.54534972  0.46030991     0.09600
H1854       H  0.26918081  0.54699429  0.42384476     0.11700
H1855       H  0.28165729  0.61804506  0.42669332     0.08300
H1856       H  0.27956866  0.61649728  0.46309915     0.11100
C1857       C  0.73435425  0.87131746  0.64159702    -0.03500
C1858       C  0.73475259  0.85408644  0.65593557    -0.06100
C1859       C  0.71666569  0.83953325  0.65809898    -0.21200
C1860       C  0.69778070  0.84144726  0.64576843     0.24500
C1861       C  0.69691653  0.85923910  0.63186879    -0.18800
C1862       C  0.71502022  0.87410963  0.62989917    -0.08700
C1863       C  0.67999535  0.82405415  0.64782275    -0.19000
C1864       C  0.66469620  0.81905216  0.63365140    -0.23800
C1865       C  0.64953392  0.79922312  0.63506501     0.26600
C1866       C  0.62945643  0.79899110  0.62414487    -0.20600
C1867       C  0.61568524  0.77997370  0.62402547    -0.10200
C1868       C  0.62190609  0.76057855  0.63456942    -0.10800
C1869       C  0.64187791  0.76091090  0.64565523    -0.03700
C1870       C  0.65550934  0.77990490  0.64589575    -0.18800
H1871       H  0.74932634  0.85155842  0.66527854     0.10300
H1872       H  0.71779367  0.82618464  0.66905708     0.10400
H1873       H  0.68247280  0.86167313  0.62240521     0.10000
H1874       H  0.71425256  0.88722437  0.61870925     0.11100
H1875       H  0.68051464  0.81395505  0.66135306     0.11200
H1876       H  0.66353602  0.82925480  0.62022985     0.13100
H1877       H  0.62453874  0.81349898  0.61547314     0.09600
H1878       H  0.60054461  0.78021757  0.61516908     0.11700
H1879       H  0.64729615  0.74623151  0.65383783     0.08300
H1880       H  0.67113754  0.77896229  0.65395534     0.11100
C1881       C  0.51281735  0.66699002  0.61752083    -0.03500
C1882       C  0.51188482  0.64447964  0.61161422    -0.06100
C1883       C  0.49143100  0.63435084  0.60726462    -0.21200
C1884       C  0.47137554  0.64638832  0.60875042     0.24500
C1885       C  0.47237609  0.66922192  0.61388963    -0.18800
C1886       C  0.49292279  0.67941987  0.61809472    -0.08700
C1887       C  0.44994342  0.63384966  0.60698198    -0.19000
C1888       C  0.42965154  0.64342969  0.60527162    -0.23800
C1889       C  0.40834804  0.63068257  0.60714021     0.26600
C1890       C  0.38857092  0.63996460  0.59945435    -0.20600
C1891       C  0.36788664  0.62966995  0.60293652    -0.10200
C1892       C  0.36653927  0.61008114  0.61453318    -0.10800
C1893       C  0.38635233  0.60046883  0.62177346    -0.03700
C1894       C  0.40700723  0.61059187  0.61811905    -0.18800
H1895       H  0.52693842  0.63448070  0.61090041     0.10300
H1896       H  0.49122566  0.61677208  0.60337621     0.10400
H1897       H  0.45739157  0.67908197  0.61563480     0.10000
H1898       H  0.49310383  0.69676080  0.62273750     0.11100
H1899       H  0.45103722  0.61575438  0.60764422     0.11200
H1900       H  0.42836121  0.66129478  0.60276820     0.13100
H1901       H  0.38907156  0.65552212  0.59113001     0.09600
H1902       H  0.35287223  0.63757359  0.59731551     0.11700
H1903       H  0.38582625  0.58540391  0.63079574     0.08300
H1904       H  0.42166991  0.60315675  0.62481897     0.11100
C1905       C  0.61582652  0.76569804  0.35778588    -0.03500
C1906       C  0.60974587  0.78491498  0.36859279    -0.06100
C1907       C  0.62385000  0.80359646  0.36898880    -0.21200
C1908       C  0.64410246  0.80361946  0.35833880     0.24500
C1909       C  0.64997664  0.78450324  0.34723441    -0.18800
C1910       C  0.63598317  0.76582266  0.34694333    -0.08700
C1911       C  0.65949314  0.82303482  0.36029401    -0.19000
C1912       C  0.67480144  0.82829358  0.34621885    -0.23800
C1913       C  0.69260101  0.84537335  0.34888078     0.26600
C1914       C  0.71199876  0.84330712  0.33722624    -0.20600
C1915       C  0.73002807  0.85770529  0.34004745    -0.10200
C1916       C  0.72903807  0.87479669  0.35445583    -0.10800
C1917       C  0.70921673  0.87769435  0.36546915    -0.03700
C1918       C  0.69114166  0.86306328  0.36276532    -0.18800
H1919       H  0.59446121  0.78524411  0.37729571     0.10300
H1920       H  0.61906295  0.81798545  0.37784906     0.10400
H1921       H  0.66577187  0.78346859  0.33939587     0.10000
H1922       H  0.64127555  0.75120928  0.33862894     0.11100
H1923       H  0.65846430  0.83271635  0.37400565     0.11200
H1924       H  0.67533166  0.81866036  0.33244352     0.13100
H1925       H  0.71352440  0.82999754  0.32630475     0.09600
H1926       H  0.74498812  0.85513100  0.33118383     0.11700
H1927       H  0.70796064  0.89076994  0.37662311     0.08300
H1928       H  0.67622400  0.86562392  0.37162930     0.11100
C1929       C  0.36453302  0.60391203  0.37454847    -0.03500
C1930       C  0.38308095  0.59288486  0.36626021    -0.06100
C1931       C  0.40470769  0.60073084  0.36957781    -0.21200
C1932       C  0.40847474  0.62002616  0.38100540     0.24500
C1933       C  0.39002200  0.63062325  0.39010264    -0.18800
C1934       C  0.36823182  0.62255056  0.38694966    -0.08700
C1935       C  0.43188417  0.62841859  0.38250384    -0.19000
C1936       C  0.43752827  0.64986231  0.38621298    -0.23800
C1937       C  0.46090259  0.65846070  0.38424186     0.26600
C1938       C  0.46426854  0.68134213  0.38054197    -0.20600
C1939       C  0.48570623  0.68975927  0.37670678    -0.10200
C1940       C  0.50435198  0.67546295  0.37650660    -0.10800
C1941       C  0.50117313  0.65278778  0.38125902    -0.03700
C1942       C  0.47976486  0.64440207  0.38522937    -0.18800
H1943       H  0.38084202  0.57841365  0.35673474     0.10300
H1944       H  0.41854762  0.59206511  0.36255666     0.10400
H1945       H  0.39228672  0.64518845  0.39946373     0.10000
H1946       H  0.35425414  0.63140575  0.39352813     0.11100
H1947       H  0.44486977  0.61671201  0.37825518     0.11200
H1948       H  0.42441463  0.66203976  0.38881520     0.13100
H1949       H  0.45015504  0.69264736  0.37991378     0.09600
H1950       H  0.48754590  0.70733825  0.37318413     0.11700
H1951       H  0.51521376  0.64138485  0.38154351     0.08300
H1952       H  0.47816212  0.62686630  0.38886909     0.11100
C1953       C  0.58095370  0.71625152  0.42566231    -0.03500
C1954       C  0.56214772  0.72429529  0.43602442    -0.06100
C1955       C  0.56180318  0.72481900  0.45695766    -0.21200
C1956       C  0.58009438  0.71708153  0.46810373     0.24500
C1957       C  0.59925480  0.70965742  0.45772733    -0.18800
C1958       C  0.59964968  0.70927959  0.43671875    -0.08700
C1959       C  0.57837704  0.71734444  0.49039814    -0.19000
C1960       C  0.59183018  0.70562749  0.50270352    -0.23800
C1961       C  0.58988386  0.70629391  0.52491114     0.26600
C1962       C  0.60913813  0.70275475  0.53641543    -0.20600
C1963       C  0.60815196  0.70319500  0.55734112    -0.10200
C1964       C  0.58775554  0.70684778  0.56729480    -0.10800
C1965       C  0.56833766  0.71000387  0.55578596    -0.03700
C1966       C  0.56937198  0.70974624  0.53479907    -0.18800
H1967       H  0.54755562  0.73004104  0.42794330     0.10300
H1968       H  0.54696238  0.73092446  0.46448786     0.10400
H1969       H  0.61404518  0.70424528  0.46561504     0.10000
H1970       H  0.61443120  0.70312471  0.42914075     0.11100
H1971       H  0.56519401  0.72749786  0.49688411     0.11200
H1972       H  0.60525699  0.69560235  0.49654911     0.13100
H1973       H  0.62508330  0.69983970  0.52916534     0.09600
H1974       H  0.62339208  0.70048910  0.56571995     0.11700
H1975       H  0.55231352  0.71256505  0.56299009     0.08300
H1976       H  0.55404795  0.71180960  0.52642047     0.11100
C1977       C  0.77032705  0.37240025  0.63739312    -0.03500
C1978       C  0.79012250  0.37886211  0.62754268    -0.06100
C1979       C  0.80875570  0.36457668  0.62715778    -0.21200
C1980       C  0.80815466  0.34363094  0.63676348     0.24500
C1981       C  0.78833923  0.33728929  0.64668413    -0.18800
C1982       C  0.76980536  0.35149281  0.64706046    -0.08700
C1983       C  0.82775448  0.32818284  0.63510880    -0.19000
C1984       C  0.83152645  0.31137816  0.64823751    -0.23800
C1985       C  0.84887953  0.29363039  0.64592140     0.26600
C1986       C  0.84573950  0.27356766  0.65648708    -0.20600
C1987       C  0.86065229  0.25579928  0.65436340    -0.10200
C1988       C  0.87942692  0.25760589  0.64176358    -0.10800
C1989       C  0.88318034  0.27798395  0.63171448    -0.03700
C1990       C  0.86801064  0.29582569  0.63369504    -0.18800
H1991       H  0.79104108  0.39471086  0.61972495     0.10300
H1992       H  0.82364120  0.36982627  0.61916600     0.10400
H1993       H  0.78664700  0.32103253  0.65360985     0.10000
H1994       H  0.75478651  0.34576744  0.65455999     0.11100
H1995       H  0.83891213  0.33049511  0.62242684     0.11200
H1996       H  0.82052864  0.30965027  0.66110164     0.13100
H1997       H  0.83129247  0.27137899  0.66611651     0.09600
H1998       H  0.85723826  0.24043926  0.66242305     0.11700
H1999       H  0.89749332  0.27992530  0.62190800     0.08300
H2000       H  0.87133897  0.31117602  0.62565425     0.11100
C2001       C  0.67895313  0.48304943  0.61591932    -0.03500
C2002       C  0.69298518  0.50172882  0.61363244    -0.06100
C2003       C  0.68402326  0.52281450  0.60938277    -0.21200
C2004       C  0.66086116  0.52576209  0.60734946     0.24500
C2005       C  0.64696320  0.50676695  0.60827458    -0.18800
C2006       C  0.65590954  0.48570452  0.61265190    -0.08700
C2007       C  0.65190470  0.54893396  0.60523515    -0.19000
C2008       C  0.63096856  0.55466053  0.61070876    -0.23800
C2009       C  0.62274378  0.57811710  0.61222418     0.26600
C2010       C  0.60433627  0.58224576  0.62472245    -0.20600
C2011       C  0.59690817  0.60400393  0.62813308    -0.10200
C2012       C  0.60750963  0.62229991  0.61891751    -0.10800
C2013       C  0.62518759  0.61821966  0.60550648    -0.03700
C2014       C  0.63280589  0.59631848  0.60220925    -0.18800
H2015       H  0.71081793  0.50027053  0.61599979     0.10300
H2016       H  0.69517667  0.53704827  0.60850631     0.10400
H2017       H  0.62914161  0.50804929  0.60594215     0.10000
H2018       H  0.64467838  0.47158078  0.61399542     0.11100
H2019       H  0.66368520  0.56193802  0.60109660     0.11200
H2020       H  0.61984352  0.54180656  0.61640026     0.13100
H2021       H  0.59606924  0.56860173  0.63246041     0.09600
H2022       H  0.58309200  0.60653616  0.63838651     0.11700
H2023       H  0.63361735  0.63199064  0.59812315     0.08300
H2024       H  0.64661176  0.59381126  0.59198999     0.11100
C2025       C  0.48934135  0.31927970  0.62299709    -0.03500
C2026       C  0.50757045  0.30456496  0.62136448    -0.06100
C2027       C  0.52927236  0.31275583  0.61878469    -0.21200
C2028       C  0.53337444  0.33583131  0.61786631     0.24500
C2029       C  0.51500830  0.35056047  0.61853011    -0.18800
C2030       C  0.49326826  0.34235765  0.62117766    -0.08700
C2031       C  0.55700072  0.34371812  0.61659467    -0.19000
C2032       C  0.56362911  0.36416227  0.62269279    -0.23800
C2033       C  0.58734843  0.37185068  0.62368476     0.26600
C2034       C  0.59192577  0.39151068  0.63438671    -0.20600
C2035       C  0.61380586  0.39918652  0.63664502    -0.10200
C2036       C  0.63179283  0.38754408  0.62805365    -0.10800
C2037       C  0.62731387  0.36821344  0.61679696    -0.03700
C2038       C  0.60532879  0.36039047  0.61463925    -0.18800
H2039       H  0.50517980  0.28668048  0.62265216     0.10300
H2040       H  0.54300801  0.30099390  0.61809957     0.10400
H2041       H  0.51726029  0.36841536  0.61709251     0.10000
H2042       H  0.47957544  0.35413319  0.62214997     0.11100
H2043       H  0.56938459  0.33154685  0.61199990     0.11200
H2044       H  0.55120089  0.37557904  0.62861138     0.13100
H2045       H  0.57850986  0.40082547  0.64139852     0.09600
H2046       H  0.61666011  0.41419500  0.64532935     0.11700
H2047       H  0.64085241  0.35884829  0.61005033     0.08300
H2048       H  0.60266864  0.34544449  0.60590089     0.11100
C2049       C  0.76563810  0.37992973  0.35980187    -0.03500
C2050       C  0.76814114  0.36585175  0.34315879    -0.06100
C2051       C  0.78684453  0.35211495  0.34127475    -0.21200
C2052       C  0.80340481  0.35163012  0.35616569     0.24500
C2053       C  0.80137037  0.36634571  0.37259429    -0.18800
C2054       C  0.78268542  0.38051390  0.37428655    -0.08700
C2055       C  0.82148502  0.33458923  0.35401186    -0.19000
C2056       C  0.83572596  0.32800400  0.36855966    -0.23800
C2057       C  0.85004940  0.30769251  0.36632134     0.26600
C2058       C  0.87034597  0.30591380  0.37681266    -0.20600
C2059       C  0.88314415  0.28622340  0.37586141    -0.10200
C2060       C  0.87562332  0.26776089  0.36469766    -0.10800
C2061       C  0.85541335  0.26969242  0.35412203    -0.03700
C2062       C  0.84280713  0.28928315  0.35494373    -0.18800
H2063       H  0.75531131  0.36511998  0.33173741     0.10300
H2064       H  0.78791790  0.34113599  0.32839921     0.10400
H2065       H  0.81384763  0.36677627  0.38428379     0.10000
H2066       H  0.78106415  0.39114891  0.38733846     0.11100
H2067       H  0.82207776  0.32584872  0.33975523     0.11200
H2068       H  0.83642218  0.33690819  0.38269680     0.13100
H2069       H  0.87619344  0.31970918  0.38590589     0.09600
H2070       H  0.89852276  0.28520246  0.38433788     0.11700
H2071       H  0.84900343  0.25579565  0.34546745     0.08300
H2072       H  0.82692460  0.28954955  0.34723512     0.11100
C2073       C  0.60459740  0.62957911  0.37678522    -0.03500
C2074       C  0.62136354  0.62816694  0.39151760    -0.06100
C2075       C  0.63240459  0.60791081  0.39515383    -0.21200
C2076       C  0.62670952  0.58858500  0.38439641     0.24500
C2077       C  0.60942025  0.58987659  0.37013894    -0.18800
C2078       C  0.59849237  0.61009053  0.36644056    -0.08700
C2079       C  0.64017111  0.56784203  0.38703510    -0.19000
C2080       C  0.63184402  0.54737854  0.38318495    -0.23800
C2081       C  0.64506116  0.52629812  0.38285165     0.26600
C2082       C  0.63326014  0.50607065  0.38221262    -0.20600
C2083       C  0.64435987  0.48587113  0.37921973    -0.10200
C2084       C  0.66766865  0.48529052  0.37665801    -0.10800
C2085       C  0.67973719  0.50539082  0.37816760    -0.03700
C2086       C  0.66855060  0.52575020  0.38118727    -0.18800
H2087       H  0.62658642  0.64290291  0.39967367     0.10300
H2088       H  0.64574329  0.60743501  0.40611026     0.10400
H2089       H  0.60494447  0.57559435  0.36107335     0.10000
H2090       H  0.58579465  0.61061063  0.35489813     0.11100
H2091       H  0.65725583  0.56963191  0.39219777     0.11200
H2092       H  0.61416602  0.54584787  0.37982118     0.13100
H2093       H  0.61520382  0.50593174  0.38341437     0.09600
H2094       H  0.63449786  0.47073452  0.37823943     0.11700
H2095       H  0.69769357  0.50551155  0.37616256     0.08300
H2096       H  0.67828314  0.54097063  0.38126291     0.11100
C2097       C  0.62789696  0.38658585  0.37803214    -0.03500
C2098       C  0.62586564  0.36930986  0.39224353    -0.06100
C2099       C  0.60508300  0.35925887  0.39595356    -0.21200
C2100       C  0.58580998  0.36648483  0.38583376     0.24500
C2101       C  0.58777118  0.38429228  0.37209230    -0.18800
C2102       C  0.60853343  0.39417577  0.36825983    -0.08700
C2103       C  0.56445345  0.35387252  0.38846603    -0.19000
C2104       C  0.54422395  0.36287374  0.38469079    -0.23800
C2105       C  0.52270664  0.35020867  0.38407405     0.26600
C2106       C  0.50283106  0.36249461  0.38241668    -0.20600
C2107       C  0.48245107  0.35181253  0.37895216    -0.10200
C2108       C  0.48130089  0.32843237  0.37696461    -0.10800
C2109       C  0.50096047  0.31592797  0.37963664    -0.03700
C2110       C  0.52148009  0.32667645  0.38310457    -0.18800
H2111       H  0.64048004  0.36294225  0.39990566     0.10300
H2112       H  0.60413520  0.34547088  0.40647070     0.10400
H2113       H  0.57355456  0.39000331  0.36351436     0.10000
H2114       H  0.60952016  0.40737924  0.35715767     0.11100
H2115       H  0.56566223  0.33666186  0.39345711     0.11200
H2116       H  0.54326378  0.38061866  0.38138555     0.13100
H2117       H  0.50314894  0.38058532  0.38310953     0.09600
H2118       H  0.46766365  0.36203272  0.37711748     0.11700
H2119       H  0.50066840  0.29791108  0.37817154     0.08300
H2120       H  0.53633311  0.31648358  0.38405880     0.11100
C2121       C  0.71298923  0.41253974  0.42871681    -0.03500
C2122       C  0.71494877  0.43261577  0.43946948    -0.06100
C2123       C  0.71612212  0.43246265  0.46039103    -0.21200
C2124       C  0.71541324  0.41229646  0.47119395     0.24500
C2125       C  0.71346543  0.39212595  0.46044013    -0.18800
C2126       C  0.71229694  0.39228874  0.43944191    -0.08700
C2127       C  0.71617746  0.41349757  0.49353597    -0.19000
C2128       C  0.71842588  0.39583573  0.50601204    -0.23800
C2129       C  0.71871819  0.39811420  0.52828520     0.26600
C2130       C  0.71238643  0.37982567  0.54028004    -0.20600
C2131       C  0.71175875  0.38165996  0.56124240    -0.10200
C2132       C  0.71756011  0.40185153  0.57064572    -0.10800
C2133       C  0.72461470  0.41988755  0.55865043    -0.03700
C2134       C  0.72534774  0.41802094  0.53778670    -0.18800
H2135       H  0.71550394  0.44853188  0.43172902     0.10300
H2136       H  0.71755297  0.44827414  0.46818941     0.10400
H2137       H  0.71249660  0.37618478  0.46799875     0.10000
H2138       H  0.71067561  0.37652667  0.43161344     0.11100
H2139       H  0.71448518  0.43005730  0.49995926     0.11200
H2140       H  0.71939253  0.37905036  0.50001215     0.13100
H2141       H  0.70750929  0.36418562  0.53338828     0.09600
H2142       H  0.70642446  0.36739704  0.57004802     0.11700
H2143       H  0.72964272  0.43555564  0.56539254     0.08300
H2144       H  0.73133884  0.43219741  0.52925751     0.11100
C2145       C  0.12041378  0.25801548  0.85642834    -0.03500
C2146       C  0.13789763  0.25657737  0.84239639    -0.06100
C2147       C  0.15259592  0.27434943  0.83955319    -0.21200
C2148       C  0.15019621  0.29416634  0.85049462     0.24500
C2149       C  0.13183238  0.29636259  0.86360674    -0.18800
C2150       C  0.11698193  0.27837432  0.86651354    -0.08700
C2151       C  0.16900518  0.31035971  0.84981777    -0.19000
C2152       C  0.16770876  0.33230943  0.85410270    -0.23800
C2153       C  0.18840198  0.34606144  0.85525518     0.26600
C2154       C  0.18920768  0.36785265  0.84735428    -0.20600
C2155       C  0.20912995  0.38034972  0.84808701    -0.10200
C2156       C  0.22836990  0.37136778  0.85714873    -0.10800
C2157       C  0.22719769  0.34973989  0.86540234    -0.03700
C2158       C  0.20756160  0.33730618  0.86447074    -0.18800
H2159       H  0.14083982  0.24126124  0.83416037     0.10300
H2160       H  0.16653545  0.27222353  0.82934397     0.10400
H2161       H  0.12971694  0.31133797  0.87249007     0.10000
H2162       H  0.10368529  0.27993248  0.87745245     0.11100
H2163       H  0.18519680  0.30358807  0.84559126     0.11200
H2164       H  0.15161246  0.34020243  0.85654607     0.13100
H2165       H  0.17457804  0.37500699  0.84030291     0.09600
H2166       H  0.20945742  0.39698556  0.84167311     0.11700
H2167       H  0.24157538  0.34224118  0.87258730     0.08300
H2168       H  0.20733215  0.32079502  0.87115765     0.11100
C2169       C  0.27422033  0.52684770  0.67850761    -0.03500
C2170       C  0.25410014  0.53074512  0.68880270    -0.06100
C2171       C  0.24871832  0.51814967  0.70597589    -0.21200
C2172       C  0.26307726  0.50115076  0.71281658     0.24500
C2173       C  0.28288150  0.49699598  0.70208428    -0.18800
C2174       C  0.28832693  0.50964389  0.68520816    -0.08700
C2175       C  0.25840617  0.48938224  0.73212120    -0.19000
C2176       C  0.26637798  0.46871698  0.73604570    -0.23800
C2177       C  0.26685753  0.45776028  0.75617781     0.26600
C2178       C  0.27542063  0.43593689  0.75741978    -0.20600
C2179       C  0.27965399  0.42596118  0.77599801    -0.10200
C2180       C  0.27527223  0.43750032  0.79390273    -0.10800
C2181       C  0.26548463  0.45883189  0.79277811    -0.03700
C2182       C  0.26142919  0.46894432  0.77413073    -0.18800
H2183       H  0.24300924  0.54401800  0.68404362     0.10300
H2184       H  0.23350029  0.52189613  0.71410919     0.10400
H2185       H  0.29480663  0.48465034  0.70714671     0.10000
H2186       H  0.30395392  0.50621176  0.67759118     0.11100
H2187       H  0.24891701  0.49836822  0.74336679     0.11200
H2188       H  0.27415273  0.45949824  0.72388110     0.13100
H2189       H  0.27975108  0.42684834  0.74391919     0.09600
H2190       H  0.28705045  0.40944686  0.77632566     0.11700
H2191       H  0.26200289  0.46819003  0.80631626     0.08300
H2192       H  0.25499238  0.48580429  0.77401851     0.11100
C2193       C  0.31224428  0.34458905  0.81183749    -0.03500
C2194       C  0.33159139  0.33144538  0.81181259    -0.06100
C2195       C  0.33736051  0.31906307  0.79485860    -0.21200
C2196       C  0.32422064  0.32016267  0.77746803     0.24500
C2197       C  0.30392202  0.33205397  0.77806333    -0.18800
C2198       C  0.29800369  0.34422158  0.79518588    -0.08700
C2199       C  0.33353141  0.31064883  0.75869046    -0.19000
C2200       C  0.32932677  0.31934398  0.74042268    -0.23800
C2201       C  0.34318475  0.31425833  0.72251423     0.26600
C2202       C  0.33410591  0.31725964  0.70329051    -0.20600
C2203       C  0.34746928  0.31481600  0.68617267    -0.10200
C2204       C  0.37029071  0.30974879  0.68802977    -0.10800
C2205       C  0.37929458  0.30653979  0.70726874    -0.03700
C2206       C  0.36594411  0.30878799  0.72430026    -0.18800
H2207       H  0.34290003  0.33182278  0.82448214     0.10300
H2208       H  0.35298185  0.30992400  0.79483974     0.10400
H2209       H  0.29304300  0.33272370  0.76514010     0.10000
H2210       H  0.28314655  0.35454328  0.79491785     0.11100
H2211       H  0.34636850  0.29795828  0.76024871     0.11200
H2212       H  0.31641581  0.33189556  0.73861150     0.13100
H2213       H  0.31670511  0.32180106  0.70154221     0.09600
H2214       H  0.34007451  0.31742787  0.67154064     0.11700
H2215       H  0.39682098  0.30262214  0.70921933     0.08300
H2216       H  0.37380666  0.30714272  0.73882523     0.11100
C2217       C  0.22846404  0.38010031  0.13047814    -0.03500
C2218       C  0.20893642  0.38637282  0.12018073    -0.06100
C2219       C  0.18999839  0.37249327  0.12036714    -0.21200
C2220       C  0.19001249  0.35223972  0.13108607     0.24500
C2221       C  0.20948650  0.34616875  0.14158888    -0.18800
C2222       C  0.22837048  0.35992399  0.14132143    -0.08700
C2223       C  0.17027921  0.33696287  0.12990490    -0.19000
C2224       C  0.16545382  0.32194619  0.14441881    -0.23800
C2225       C  0.14841414  0.30376351  0.14296187     0.26600
C2226       C  0.14991141  0.28615228  0.15681207    -0.20600
C2227       C  0.13581832  0.26765428  0.15550095    -0.10200
C2228       C  0.11949876  0.26626249  0.14042582    -0.10800
C2229       C  0.11710175  0.28431746  0.12706657    -0.03700
C2230       C  0.13151363  0.30288931  0.12823451    -0.18800
H2231       H  0.20848563  0.40170148  0.11153645     0.10300
H2232       H  0.17535814  0.37748346  0.11195142     0.10400
H2233       H  0.21060199  0.33038015  0.14943814     0.10000
H2234       H  0.24314411  0.35443561  0.14928340     0.11100
H2235       H  0.16007876  0.33782640  0.11650642     0.11200
H2236       H  0.17548644  0.32207792  0.15796432     0.13100
H2237       H  0.16256863  0.28633683  0.16840983     0.09600
H2238       H  0.13800350  0.25415092  0.16616735     0.11700
H2239       H  0.10466535  0.28371598  0.11530867     0.08300
H2240       H  0.12944773  0.31628079  0.11749781     0.11100
C2241       C  0.28454259  0.40905252  0.92092496    -0.03500
C2242       C  0.26727510  0.42217781  0.92903575    -0.06100
C2243       C  0.26526762  0.42493488  0.94981967    -0.21200
C2244       C  0.28034378  0.41455522  0.96299280     0.24500
C2245       C  0.29779365  0.40163825  0.95483573    -0.18800
C2246       C  0.29977190  0.39884999  0.93408764    -0.08700
C2247       C  0.27783527  0.41820717  0.98501321    -0.19000
C2248       C  0.28638052  0.40424103  0.99892725    -0.23800
C2249       C  0.28445839  0.40751361  0.02102438     0.26600
C2250       C  0.28894122  0.38921275  0.03357965    -0.20600
C2251       C  0.28815128  0.39138589  0.05441967    -0.10200
C2252       C  0.28303674  0.41203186  0.06332579    -0.10800
C2253       C  0.27862559  0.43046571  0.05082278    -0.03700
C2254       C  0.27932495  0.42826131  0.02988863    -0.18800
H2255       H  0.25526261  0.43029355  0.91933276     0.10300
H2256       H  0.25179289  0.43513523  0.95563963     0.10400
H2257       H  0.31027331  0.39398026  0.96430871     0.10000
H2258       H  0.31338296  0.38878143  0.92835330     0.11100
H2259       H  0.26788788  0.43240113  0.98974317     0.11200
H2260       H  0.29461117  0.38905240  0.99402602     0.13100
H2261       H  0.29314192  0.37309609  0.02723092     0.09600
H2262       H  0.29182024  0.37687180  0.06356425     0.11700
H2263       H  0.27478750  0.44664425  0.05721183     0.08300
H2264       H  0.27633290  0.44295860  0.02083549     0.11100
C2265       C  0.26639158  0.53794268  0.30288123    -0.03500
C2266       C  0.24797075  0.54630050  0.29220313    -0.06100
C2267       C  0.24208255  0.53700661  0.27361131    -0.21200
C2268       C  0.25403700  0.51878313  0.26575995     0.24500
C2269       C  0.27190953  0.50996218  0.27685977    -0.18800
C2270       C  0.27809389  0.51952856  0.29510198    -0.08700
C2271       C  0.24960372  0.51076381  0.24505937    -0.19000
C2272       C  0.25220636  0.48919659  0.23973566    -0.23800
C2273       C  0.25363738  0.48165305  0.21854101     0.26600
C2274       C  0.24763559  0.45962046  0.21360326    -0.20600
C2275       C  0.25237090  0.45094450  0.19452887    -0.10200
C2276       C  0.26379822  0.46398909  0.18032861    -0.10800
C2277       C  0.26924770  0.48617980  0.18504016    -0.03700
C2278       C  0.26397477  0.49504178  0.20385640    -0.18800
H2279       H  0.23876647  0.56057543  0.29779652     0.10300
H2280       H  0.22842635  0.54426240  0.26519147     0.10400
H2281       H  0.28183714  0.49632417  0.27100302     0.10000
H2282       H  0.29236714  0.51272356  0.30298987     0.11100
H2283       H  0.24516713  0.52309835  0.23377918     0.11200
H2284       H  0.25460852  0.47666027  0.25134595     0.13100
H2285       H  0.23999520  0.44887035  0.22476454     0.09600
H2286       H  0.24846663  0.43363145  0.19134219     0.11700
H2287       H  0.27839500  0.49639158  0.17439331     0.08300
H2288       H  0.26938643  0.51186191  0.20731498     0.11100
C2289       C  0.31302705  0.37842014  0.18574078    -0.03500
C2290       C  0.31841856  0.35563113  0.18407408    -0.06100
C2291       C  0.32428499  0.34322925  0.20102336    -0.21200
C2292       C  0.32461108  0.35318926  0.22003803     0.24500
C2293       C  0.31834639  0.37577342  0.22187088    -0.18800
C2294       C  0.31260166  0.38824228  0.20487588    -0.08700
C2295       C  0.33403164  0.34033737  0.23708767    -0.19000
C2296       C  0.32988736  0.34508323  0.25645259    -0.23800
C2297       C  0.34250239  0.33461337  0.27314338     0.26600
C2298       C  0.33267118  0.33321039  0.29221255    -0.20600
C2299       C  0.34506088  0.32572042  0.30867369    -0.10200
C2300       C  0.36767402  0.31983369  0.30641145    -0.10800
C2301       C  0.37731661  0.32065410  0.28720519    -0.03700
C2302       C  0.36490287  0.32799207  0.27075944    -0.18800
H2303       H  0.31888195  0.34752896  0.16957032     0.10300
H2304       H  0.32917350  0.32591507  0.19919909     0.10400
H2305       H  0.31891716  0.38419615  0.23620107     0.10000
H2306       H  0.30852809  0.40576629  0.20665919     0.11100
H2307       H  0.34520180  0.32662696  0.23345009     0.11200
H2308       H  0.31711408  0.35722506  0.26029132     0.13100
H2309       H  0.31550342  0.33837458  0.29444874     0.09600
H2310       H  0.33714959  0.32532682  0.32328928     0.11700
H2311       H  0.39471534  0.31635365  0.28497042     0.08300
H2312       H  0.37325707  0.32945747  0.25641441     0.11100
C2313       C  0.73413593  0.11394971  0.85705319    -0.03500
C2314       C  0.73601409  0.13271049  0.84443410    -0.06100
C2315       C  0.71814890  0.14731564  0.84179097    -0.21200
C2316       C  0.69773121  0.14375897  0.85162502     0.24500
C2317       C  0.69521609  0.12428263  0.86339987    -0.18800
C2318       C  0.71329771  0.10944321  0.86602359    -0.08700
C2319       C  0.68100366  0.16223655  0.85071033    -0.19000
C2320       C  0.65979235  0.16165069  0.85758797    -0.23800
C2321       C  0.64614662  0.18252134  0.85871402     0.26600
C2322       C  0.62296581  0.18217191  0.85525846    -0.20600
C2323       C  0.61028672  0.20196372  0.85647842    -0.10200
C2324       C  0.62054846  0.22234598  0.86161541    -0.10800
C2325       C  0.64366853  0.22244695  0.86534050    -0.03700
C2326       C  0.65623363  0.20290319  0.86394457    -0.18800
H2327       H  0.75168122  0.13663624  0.83706842     0.10300
H2328       H  0.72065390  0.16204415  0.83257430     0.10400
H2329       H  0.67979569  0.12098730  0.87134161     0.10000
H2330       H  0.71132058  0.09514664  0.87584416     0.11100
H2331       H  0.68695118  0.17789152  0.84434911     0.11200
H2332       H  0.65237740  0.14603701  0.86253066     0.13100
H2333       H  0.61472764  0.16663807  0.85143035     0.09600
H2334       H  0.59249249  0.20127380  0.85366549     0.11700
H2335       H  0.65219460  0.23773562  0.86944543     0.08300
H2336       H  0.67388471  0.20374176  0.86737285     0.11100
C2337       C  0.63737162  0.31166017  0.81270217    -0.03500
C2338       C  0.65195360  0.29591822  0.80419013    -0.06100
C2339       C  0.66477759  0.30163141  0.78724944    -0.21200
C2340       C  0.66355292  0.32324595  0.77896941     0.24500
C2341       C  0.64944814  0.33905304  0.78801281    -0.18800
C2342       C  0.63662301  0.33334457  0.80462171    -0.08700
C2343       C  0.67496561  0.32859018  0.75974063    -0.19000
C2344       C  0.68097992  0.34966962  0.75503672    -0.23800
C2345       C  0.68655151  0.35760329  0.73450899     0.26600
C2346       C  0.69566780  0.37908736  0.73242323    -0.20600
C2347       C  0.69796384  0.38887746  0.71353040    -0.10200
C2348       C  0.69119153  0.37738868  0.69621033    -0.10800
C2349       C  0.68287903  0.35553282  0.69813243    -0.03700
C2350       C  0.68043935  0.34575004  0.71711547    -0.18800
H2351       H  0.65275217  0.27906841  0.81009605     0.10300
H2352       H  0.67532518  0.28908664  0.78037822     0.10400
H2353       H  0.64738744  0.35562025  0.78174912     0.10000
H2354       H  0.62561711  0.34591043  0.81088111     0.11100
H2355       H  0.67723505  0.31517173  0.74901441     0.11200
H2356       H  0.68056268  0.36230168  0.76672091     0.13100
H2357       H  0.70036734  0.38865984  0.74553773     0.09600
H2358       H  0.70462665  0.40568471  0.71253264     0.11700
H2359       H  0.67742001  0.34634589  0.68504633     0.08300
H2360       H  0.67282108  0.32939758  0.71806374     0.11100
C2361       C  0.54275426  0.26537345  0.80690543    -0.03500
C2362       C  0.52207499  0.25461963  0.80960843    -0.06100
C2363       C  0.50825440  0.25019543  0.79319621    -0.21200
C2364       C  0.51499092  0.25589820  0.77368779     0.24500
C2365       C  0.53626357  0.26541451  0.77080801    -0.18800
C2366       C  0.54994800  0.27022153  0.78728024    -0.08700
C2367       C  0.49836872  0.25472967  0.75720048    -0.19000
C2368       C  0.50383327  0.25214607  0.73774642    -0.23800
C2369       C  0.48739102  0.25563274  0.72135516     0.26600
C2370       C  0.48939177  0.24366278  0.70331978    -0.20600
C2371       C  0.47567611  0.24875919  0.68688253    -0.10200
C2372       C  0.46028169  0.26639631  0.68808601    -0.10800
C2373       C  0.45793268  0.27799708  0.70624321    -0.03700
C2374       C  0.47117265  0.27255419  0.72276393    -0.18800
H2375       H  0.51597631  0.25076334  0.82452258     0.10300
H2376       H  0.49189055  0.24301284  0.79581514     0.10400
H2377       H  0.54179230  0.27044099  0.75600737     0.10000
H2378       H  0.56577625  0.27853140  0.78471555     0.11100
H2379       H  0.48089830  0.25677486  0.76125260     0.11200
H2380       H  0.52089579  0.24799507  0.73363762     0.13100
H2381       H  0.50193541  0.23073412  0.70181452     0.09600
H2382       H  0.47800275  0.23984080  0.67290997     0.11700
H2383       H  0.44629421  0.29179818  0.70743486     0.08300
H2384       H  0.46955528  0.28247880  0.73625175     0.11100
C2385       C  0.37019993  0.38189626  0.87026312    -0.03500
C2386       C  0.38849994  0.39528460  0.86481243    -0.06100
C2387       C  0.41034755  0.38785262  0.86810743    -0.21200
C2388       C  0.41452435  0.36688987  0.87692604     0.24500
C2389       C  0.39616534  0.35401794  0.88339808    -0.18800
C2390       C  0.37429030  0.36146198  0.88007794    -0.08700
C2391       C  0.43810800  0.35874759  0.87749230    -0.19000
C2392       C  0.44481847  0.33827795  0.88367239    -0.23800
C2393       C  0.46805346  0.33003459  0.88033891     0.26600
C2394       C  0.47740741  0.31384874  0.89316985    -0.20600
C2395       C  0.49901900  0.30543104  0.88965704    -0.10200
C2396       C  0.51151360  0.31286148  0.87304826    -0.10800
C2397       C  0.50187853  0.32880126  0.86013386    -0.03700
C2398       C  0.48051718  0.33716288  0.86364826    -0.18800
H2399       H  0.38598207  0.41111031  0.85724808     0.10300
H2400       H  0.42408143  0.39823103  0.86302337     0.10400
H2401       H  0.39839197  0.33792714  0.89045562     0.10000
H2402       H  0.36054219  0.35080890  0.88462344     0.11100
H2403       H  0.45062171  0.37008579  0.87148789     0.11200
H2404       H  0.43320903  0.32695605  0.89092224     0.13100
H2405       H  0.46798962  0.30775217  0.90594412     0.09600
H2406       H  0.50581990  0.29300646  0.89976098     0.11700
H2407       H  0.51076164  0.33474382  0.84700112     0.08300
H2408       H  0.47362634  0.34880386  0.85287712     0.11100
C2409       C  0.61703367  0.23303544  0.14085834    -0.03500
C2410       C  0.63434339  0.23367952  0.15506247    -0.06100
C2411       C  0.64820331  0.21523919  0.15807000    -0.21200
C2412       C  0.64550881  0.19566643  0.14677290     0.24500
C2413       C  0.62781185  0.19463966  0.13285908    -0.18800
C2414       C  0.61360659  0.21314610  0.13003527    -0.08700
C2415       C  0.66183433  0.17718088  0.15015127    -0.19000
C2416       C  0.66722572  0.16132852  0.13657036    -0.23800
C2417       C  0.68646730  0.14558135  0.13924584     0.26600
C2418       C  0.68748362  0.12586239  0.12780064    -0.20600
C2419       C  0.70628999  0.11182099  0.12864186    -0.10200
C2420       C  0.72467856  0.11737798  0.14076414    -0.10800
C2421       C  0.72341978  0.13680433  0.15254722    -0.03700
C2422       C  0.70469035  0.15072630  0.15177554    -0.18800
H2423       H  0.63739371  0.24863967  0.16376970     0.10300
H2424       H  0.66154288  0.21652211  0.16897545     0.10400
H2425       H  0.62487905  0.17967368  0.12417927     0.10000
H2426       H  0.60039492  0.21212987  0.11899882     0.11100
H2427       H  0.67088857  0.17772650  0.16421282     0.11200
H2428       H  0.65796470  0.16033486  0.12262287     0.13100
H2429       H  0.67386554  0.12154051  0.11785342     0.09600
H2430       H  0.70681156  0.09713325  0.11918823     0.11700
H2431       H  0.73732267  0.14171892  0.16194107     0.08300
H2432       H  0.70518495  0.16600904  0.16036848     0.11100
C2433       C  0.50623869  0.32306092  0.11800600    -0.03500
C2434       C  0.48764659  0.30869363  0.11726927    -0.06100
C2435       C  0.46627856  0.31711084  0.11322830    -0.21200
C2436       C  0.46296069  0.34005812  0.10989853     0.24500
C2437       C  0.48178085  0.35420965  0.10947564    -0.18800
C2438       C  0.50310275  0.34582675  0.11362877    -0.08700
C2439       C  0.43968204  0.34868752  0.10764521    -0.19000
C2440       C  0.43395177  0.36988110  0.11225382    -0.23800
C2441       C  0.41058453  0.37843256  0.11308219     0.26600
C2442       C  0.40643332  0.39747420  0.12475569    -0.20600
C2443       C  0.38477640  0.40563439  0.12718557    -0.10200
C2444       C  0.36661125  0.39514810  0.11777594    -0.10800
C2445       C  0.37075889  0.37667677  0.10527589    -0.03700
C2446       C  0.39255234  0.36832348  0.10297877    -0.18800
H2447       H  0.48946559  0.29104470  0.12049670     0.10300
H2448       H  0.45217782  0.30575718  0.11340861     0.10400
H2449       H  0.48018451  0.37181860  0.10611781     0.10000
H2450       H  0.51710232  0.35729445  0.11376622     0.11100
H2451       H  0.42672039  0.33669836  0.10399007     0.11200
H2452       H  0.44678416  0.38119937  0.11757179     0.13100
H2453       H  0.41996596  0.40576053  0.13254666     0.09600
H2454       H  0.38221230  0.41997405  0.13680875     0.11700
H2455       H  0.35709247  0.36825744  0.09780335     0.08300
H2456       H  0.39513186  0.35398103  0.09340695     0.11100
C2457       C  0.59193191  0.27878428  0.92823236    -0.03500
C2458       C  0.58674716  0.25852740  0.93789702    -0.06100
C2459       C  0.58792151  0.25677866  0.95880709    -0.21200
C2460       C  0.59365184  0.27538245  0.97048576     0.24500
C2461       C  0.59892038  0.29564001  0.96086669    -0.18800
C2462       C  0.59825917  0.29725881  0.93993109    -0.08700
C2463       C  0.59423651  0.27324549  0.99264537    -0.19000
C2464       C  0.58640190  0.28940156  0.00475414    -0.23800
C2465       C  0.58548760  0.28703906  0.02687502     0.26600
C2466       C  0.56717018  0.29592515  0.03727574    -0.20600
C2467       C  0.56598118  0.29444805  0.05816910    -0.10200
C2468       C  0.58347178  0.28469465  0.06913189    -0.10800
C2469       C  0.60199576  0.27603993  0.05877062    -0.03700
C2470       C  0.60288158  0.27694647  0.03777618    -0.18800
H2471       H  0.58207022  0.24394526  0.92926942     0.10300
H2472       H  0.58395786  0.24096452  0.96591590     0.10400
H2473       H  0.60382834  0.31012773  0.96951523     0.10000
H2474       H  0.60248113  0.31304266  0.93289830     0.11100
H2475       H  0.59953881  0.25740422  0.99906248     0.11200
H2476       H  0.57885410  0.30420593  0.99815436     0.13100
H2477       H  0.55367265  0.30392520  0.02918057     0.09600
H2478       H  0.55164896  0.30149673  0.06581318     0.11700
H2479       H  0.61573854  0.26854202  0.06690826     0.08300
H2480       H  0.61739416  0.27032329  0.03012374     0.11100
C2481       C  0.62117777  0.31908513  0.18860332    -0.03500
C2482       C  0.64446791  0.32133420  0.18673325    -0.06100
C2483       C  0.65758934  0.32592412  0.20353135    -0.21200
C2484       C  0.64775864  0.32804245  0.22252601     0.24500
C2485       C  0.62452966  0.32517512  0.22450244    -0.18800
C2486       C  0.61139819  0.32069941  0.20770954    -0.08700
C2487       C  0.66158612  0.33590949  0.23948383    -0.19000
C2488       C  0.65620759  0.33205808  0.25876305    -0.23800
C2489       C  0.66659990  0.34436573  0.27558246     0.26600
C2490       C  0.66602810  0.33506017  0.29489688    -0.20600
C2491       C  0.67266270  0.34765340  0.31149786    -0.10200
C2492       C  0.67960776  0.36993687  0.30906150    -0.10800
C2493       C  0.68096322  0.37895262  0.28963689    -0.03700
C2494       C  0.67451719  0.36633260  0.27307050    -0.18800
H2495       H  0.65251365  0.32010218  0.17221882     0.10300
H2496       H  0.67541195  0.32829362  0.20162995     0.10400
H2497       H  0.61627429  0.32738874  0.23880840     0.10000
H2498       H  0.59349679  0.31910243  0.20963705     0.11100
H2499       H  0.67617999  0.34594984  0.23590763     0.11200
H2500       H  0.64303558  0.32022908  0.26238845     0.13100
H2501       H  0.65979097  0.31824997  0.29720165     0.09600
H2502       H  0.67139355  0.34027267  0.32629737     0.11700
H2503       H  0.68622144  0.39608407  0.28727762     0.08300
H2504       H  0.67458922  0.37431425  0.25849976     0.11100
C2505       C  0.53302585  0.27276586  0.18705775    -0.03500
C2506       C  0.54284148  0.25663561  0.19955685    -0.06100
C2507       C  0.53333871  0.25167348  0.21831003    -0.21200
C2508       C  0.51353068  0.26221151  0.22455559     0.24500
C2509       C  0.50324826  0.27762091  0.21158960    -0.18800
C2510       C  0.51299936  0.28295530  0.19314584    -0.08700
C2511       C  0.50527394  0.25906741  0.24541953    -0.19000
C2512       C  0.48348287  0.26053200  0.25036311    -0.23800
C2513       C  0.47540414  0.26229899  0.27140056     0.26600
C2514       C  0.45366625  0.25516245  0.27621435    -0.20600
C2515       C  0.44444921  0.25965083  0.29512898    -0.10200
C2516       C  0.45661690  0.27194645  0.30928294    -0.10800
C2517       C  0.47851114  0.27862286  0.30470558    -0.03700
C2518       C  0.48794131  0.27362681  0.28604151    -0.18800
H2519       H  0.55842970  0.24877266  0.19529533     0.10300
H2520       H  0.54171777  0.23995926  0.22815173     0.10400
H2521       H  0.48831567  0.28648994  0.21611313     0.10000
H2522       H  0.50515730  0.29553304  0.18380685     0.11100
H2523       H  0.51759298  0.25619825  0.25708615     0.11200
H2524       H  0.47104607  0.26126485  0.23852940     0.13100
H2525       H  0.44356678  0.24670636  0.26509698     0.09600
H2526       H  0.42736857  0.25474576  0.29824811     0.11700
H2527       H  0.48803913  0.28839858  0.31535572     0.08300
H2528       H  0.50449548  0.27989232  0.28268552     0.11100
C2529       C  0.77154335  0.61501007  0.86018603    -0.03500
C2530       C  0.79163220  0.60717828  0.86857543    -0.06100
C2531       C  0.81111772  0.62030992  0.86784841    -0.21200
C2532       C  0.81109734  0.64140799  0.85848789     0.24500
C2533       C  0.79101937  0.64905378  0.84989671    -0.18800
C2534       C  0.77161544  0.63603656  0.85069628    -0.08700
C2535       C  0.83159032  0.65579774  0.85922713    -0.19000
C2536       C  0.83561912  0.67231044  0.84583068    -0.23800
C2537       C  0.85362206  0.68959180  0.84746412     0.26600
C2538       C  0.85141897  0.70897210  0.83574328    -0.20600
C2539       C  0.86641864  0.72671235  0.83762942    -0.10200
C2540       C  0.88436628  0.72559860  0.85116636    -0.10800
C2541       C  0.88743368  0.70575882  0.86220141    -0.03700
C2542       C  0.87215899  0.68792797  0.86044838    -0.18800
H2543       H  0.79217248  0.59114610  0.87611268     0.10300
H2544       H  0.82622032  0.61405678  0.87479948     0.10400
H2545       H  0.78988018  0.66546669  0.84317047     0.10000
H2546       H  0.75646374  0.64273519  0.84418261     0.11100
H2547       H  0.84311248  0.65301812  0.87151145     0.11200
H2548       H  0.82422378  0.67422657  0.83330211     0.13100
H2549       H  0.83749999  0.71077475  0.82549369     0.09600
H2550       H  0.86357581  0.74164103  0.82878488     0.11700
H2551       H  0.90108584  0.70437667  0.87276851     0.08300
H2552       H  0.87481276  0.67313121  0.86944851     0.11100
C2553       C  0.68499715  0.62306578  0.80784108    -0.03500
C2554       C  0.68515081  0.61405093  0.78840132    -0.06100
C2555       C  0.67860020  0.62696459  0.77203437    -0.21200
C2556       C  0.67185814  0.64927434  0.77472395     0.24500
C2557       C  0.67220520  0.65846864  0.79405894    -0.18800
C2558       C  0.67887993  0.64554406  0.81047984    -0.08700
C2559       C  0.66204837  0.66230739  0.75802778    -0.19000
C2560       C  0.66712655  0.65832044  0.73870823    -0.23800
C2561       C  0.65388655  0.66706256  0.72167362     0.26600
C2562       C  0.66336230  0.66677737  0.70242122    -0.20600
C2563       C  0.65038534  0.67163852  0.68558497    -0.10200
C2564       C  0.62757091  0.67662351  0.68770130    -0.10800
C2565       C  0.61827968  0.67774879  0.70702989    -0.03700
C2566       C  0.63126210  0.67297075  0.72384941    -0.18800
H2567       H  0.68962655  0.59673932  0.78587631     0.10300
H2568       H  0.67782265  0.61903462  0.75748112     0.10400
H2569       H  0.66681397  0.67552967  0.79651307     0.10000
H2570       H  0.67847518  0.65291063  0.82530016     0.11100
H2571       H  0.64974819  0.67494219  0.76182491     0.11200
H2572       H  0.68101451  0.64734564  0.73512532     0.13100
H2573       H  0.68069631  0.66209960  0.70035161     0.09600
H2574       H  0.65803831  0.67069773  0.67088090     0.11700
H2575       H  0.60075137  0.68158237  0.70914543     0.08300
H2576       H  0.62314225  0.67279307  0.73834804     0.11100
C2577       C  0.73231480  0.53624510  0.80631237    -0.03500
C2578       C  0.75412864  0.52790105  0.80406257    -0.06100
C2579       C  0.76050794  0.51720556  0.78614654    -0.21200
C2580       C  0.74538480  0.51524829  0.77009758     0.24500
C2581       C  0.72380287  0.52413993  0.77234658    -0.18800
C2582       C  0.71741561  0.53447164  0.79013919    -0.08700
C2583       C  0.75133595  0.50237770  0.75170991    -0.19000
C2584       C  0.74245093  0.50759260  0.73371278    -0.23800
C2585       C  0.74267128  0.49318887  0.71547334     0.26600
C2586       C  0.73287036  0.50190248  0.69801158    -0.20600
C2587       C  0.72869033  0.48825681  0.68150662    -0.10200
C2588       C  0.73456416  0.46559527  0.68185663    -0.10800
C2589       C  0.74562618  0.45696335  0.69871838    -0.03700
C2590       C  0.74956941  0.47062427  0.71550183    -0.18800
H2591       H  0.76590597  0.52892786  0.81633313     0.10300
H2592       H  0.77715752  0.51026513  0.78487758     0.10400
H2593       H  0.71141406  0.52236288  0.76065737     0.10000
H2594       H  0.70049732  0.54076261  0.79135659     0.11100
H2595       H  0.76232223  0.48808622  0.75332619     0.11200
H2596       H  0.73310188  0.52310607  0.73250019     0.13100
H2597       H  0.72729782  0.51912342  0.69749375     0.09600
H2598       H  0.71991166  0.49518493  0.66872302     0.11700
H2599       H  0.74983037  0.43937459  0.69943409     0.08300
H2600       H  0.75688328  0.46311096  0.72869379     0.11100
C2601       C  0.67767148  0.50459337  0.87160002    -0.03500
C2602       C  0.69131733  0.48696169  0.87821241    -0.06100
C2603       C  0.68246709  0.46545101  0.88077655    -0.21200
C2604       C  0.65982164  0.46105506  0.87680950     0.24500
C2605       C  0.64618473  0.47877916  0.87027075    -0.18800
C2606       C  0.65497936  0.50025419  0.86784712    -0.08700
C2607       C  0.65147878  0.43761460  0.87837413    -0.19000
C2608       C  0.62963234  0.43199957  0.87941821    -0.23800
C2609       C  0.62138287  0.40851825  0.87881952     0.26600
C2610       C  0.59969193  0.40431595  0.87168299    -0.20600
C2611       C  0.59192822  0.38237849  0.86930801    -0.10200
C2612       C  0.60570966  0.36418374  0.87416493    -0.10800
C2613       C  0.62691213  0.36844074  0.88242768    -0.03700
C2614       C  0.63464756  0.39031221  0.88479265    -0.18800
H2615       H  0.70889814  0.48970655  0.88110580     0.10300
H2616       H  0.69343989  0.45210826  0.88564535     0.10400
H2617       H  0.62889414  0.47616392  0.86631647     0.10000
H2618       H  0.64407545  0.51334924  0.86237926     0.11100
H2619       H  0.66401690  0.42452747  0.87807355     0.11200
H2620       H  0.61702461  0.44499166  0.87967656     0.13100
H2621       H  0.58900341  0.41805102  0.86721425     0.09600
H2622       H  0.57553234  0.37967583  0.86292403     0.11700
H2623       H  0.63784366  0.35479407  0.88661708     0.08300
H2624       H  0.65106757  0.39279137  0.89114782     0.11100
C2625       C  0.77261199  0.61710929  0.13680141    -0.03500
C2626       C  0.79088452  0.61195269  0.12436821    -0.06100
C2627       C  0.80982437  0.62586733  0.12396002    -0.21200
C2628       C  0.81105189  0.64502839  0.13614227     0.24500
C2629       C  0.79298739  0.64966493  0.14903931    -0.18800
C2630       C  0.77415057  0.63588272  0.14938639    -0.08700
C2631       C  0.83021968  0.66091752  0.13373510    -0.19000
C2632       C  0.83569077  0.67635521  0.14766876    -0.23800
C2633       C  0.85169683  0.69516989  0.14443652     0.26600
C2634       C  0.84924834  0.71426412  0.15644628    -0.20600
C2635       C  0.86261004  0.73310034  0.15337346    -0.10200
C2636       C  0.87915815  0.73327146  0.13840866    -0.10800
C2637       C  0.88241386  0.71383502  0.12691239    -0.03700
C2638       C  0.86872703  0.69497433  0.12980067    -0.18800
H2639       H  0.79015160  0.59774910  0.11434531     0.10300
H2640       H  0.82333999  0.62195193  0.11373483     0.10400
H2641       H  0.79266260  0.66451124  0.15823854     0.10000
H2642       H  0.76036420  0.64043933  0.15909463     0.11100
H2643       H  0.83922830  0.66049580  0.11961008     0.11200
H2644       H  0.82689747  0.67632541  0.16190000     0.13100
H2645       H  0.83641643  0.71489811  0.16791621     0.09600
H2646       H  0.85972933  0.74773282  0.16256339     0.11700
H2647       H  0.89502217  0.71348122  0.11524799     0.08300
H2648       H  0.87150575  0.68041900  0.12054191     0.11100
C2649       C  0.67223929  0.51308607  0.11998282    -0.03500
C2650       C  0.64888111  0.51284412  0.11776661    -0.06100
C2651       C  0.63738708  0.49277003  0.11504013    -0.21200
C2652       C  0.64883691  0.47233808  0.11428980     0.24500
C2653       C  0.67235936  0.47257761  0.11547674    -0.18800
C2654       C  0.68393011  0.49278549  0.11825032    -0.08700
C2655       C  0.63533974  0.45135903  0.11432705    -0.19000
C2656       C  0.64321383  0.43087920  0.10972857    -0.23800
C2657       C  0.62957924  0.41013774  0.11215301     0.26600
C2658       C  0.63463990  0.39117878  0.10060059    -0.20600
C2659       C  0.62327859  0.37094190  0.10371756    -0.10200
C2660       C  0.60677796  0.36913861  0.11869260    -0.10800
C2661       C  0.60142794  0.38825627  0.12996775    -0.03700
C2662       C  0.61268103  0.40845085  0.12679446    -0.18800
H2663       H  0.63929789  0.52813884  0.11890834     0.10300
H2664       H  0.61931702  0.49316273  0.11416133     0.10400
H2665       H  0.68183631  0.45720365  0.11528322     0.10000
H2666       H  0.70190800  0.49237602  0.11998084     0.11100
H2667       H  0.61785679  0.45301165  0.11843995     0.11200
H2668       H  0.66003419  0.42910685  0.10385108     0.13100
H2669       H  0.64769503  0.39192955  0.08934342     0.09600
H2670       H  0.62799395  0.35651028  0.09489997     0.11700
H2671       H  0.58902231  0.38744494  0.14179413     0.08300
H2672       H  0.60871511  0.42239614  0.13646452     0.11100
C2673       C  0.71653049  0.58768900  0.06960810    -0.03500
C2674       C  0.71744759  0.60842496  0.05970821    -0.06100
C2675       C  0.71680647  0.60954600  0.03873335    -0.21200
C2676       C  0.71536073  0.59002091  0.02712483     0.24500
C2677       C  0.71434593  0.56924755  0.03705677    -0.18800
C2678       C  0.71503210  0.56812727  0.05800895    -0.08700
C2679       C  0.71414095  0.59215002  0.00484792    -0.19000
C2680       C  0.71911973  0.57539806  0.99205682    -0.23800
C2681       C  0.71798134  0.57709461  0.96973539     0.26600
C2682       C  0.71907152  0.55726996  0.95852376    -0.20600
C2683       C  0.71862734  0.55777460  0.93756557    -0.10200
C2684       C  0.71719184  0.57819500  0.92719756    -0.10800
C2685       C  0.71603926  0.59808946  0.93834804    -0.03700
C2686       C  0.71649016  0.59759185  0.95935903    -0.18800
H2687       H  0.71851768  0.62381877  0.06816267     0.10300
H2688       H  0.71744737  0.62578214  0.03153188     0.10400
H2689       H  0.71246175  0.55380277  0.02885623     0.10000
H2690       H  0.71401822  0.55187491  0.06513715     0.11100
H2691       H  0.70918355  0.60830669  0.99900583     0.11200
H2692       H  0.72438145  0.55940601  0.99808260     0.13100
H2693       H  0.72027637  0.54123744  0.96602579     0.09600
H2694       H  0.71946543  0.54210948  0.92948789     0.11700
H2695       H  0.71494631  0.61411077  0.93083296     0.08300
H2696       H  0.71607617  0.61335559  0.96721348     0.11100
C2697       C  0.61898123  0.68022494  0.30508876    -0.03500
C2698       C  0.60844985  0.68118971  0.28627233    -0.06100
C2699       C  0.62060674  0.67794328  0.26864639    -0.21200
C2700       C  0.64356381  0.67338558  0.26928231     0.24500
C2701       C  0.65436598  0.67303173  0.28804730    -0.18800
C2702       C  0.64216449  0.67644733  0.30578211    -0.08700
C2703       C  0.65515026  0.66843928  0.25002228    -0.19000
C2704       C  0.67341761  0.65540251  0.24859931    -0.23800
C2705       C  0.68114656  0.64600758  0.22914089     0.26600
C2706       C  0.67803045  0.65712514  0.21070341    -0.20600
C2707       C  0.68260181  0.64621734  0.19255529    -0.10200
C2708       C  0.69023828  0.62401446  0.19255047    -0.10800
C2709       C  0.69480592  0.61357539  0.21100742    -0.03700
C2710       C  0.69046915  0.62452546  0.22907057    -0.18800
H2711       H  0.59067430  0.68428197  0.28511824     0.10300
H2712       H  0.61186946  0.67843908  0.25443387     0.10400
H2713       H  0.67216250  0.67015398  0.28911550     0.10000
H2714       H  0.65081676  0.67584921  0.32002358     0.11100
H2715       H  0.64658025  0.67334001  0.23636821     0.11200
H2716       H  0.68089090  0.64870731  0.26215151     0.13100
H2717       H  0.67157799  0.67401066  0.21024032     0.09600
H2718       H  0.67921850  0.65478848  0.17857012     0.11700
H2719       H  0.70108396  0.59660401  0.21151587     0.08300
H2720       H  0.69331454  0.61570289  0.24303616     0.11100
C2721       C  0.73030281  0.53599469  0.18709136    -0.03500
C2722       C  0.73971125  0.54896139  0.20240307    -0.06100
C2723       C  0.74348888  0.53965045  0.22140164    -0.21200
C2724       C  0.73846048  0.51709479  0.22527684     0.24500
C2725       C  0.73014756  0.50383749  0.20953920    -0.18800
C2726       C  0.72583620  0.51331230  0.19070306    -0.08700
C2727       C  0.73875868  0.50886373  0.24636326    -0.19000
C2728       C  0.74141566  0.48723788  0.25158093    -0.23800
C2729       C  0.73666748  0.47902632  0.27225493     0.26600
C2730       C  0.74878560  0.46102259  0.28035527    -0.20600
C2731       C  0.74287526  0.45183640  0.29905610    -0.10200
C2732       C  0.72427066  0.46005934  0.30960869    -0.10800
C2733       C  0.71237084  0.47820234  0.30155830    -0.03700
C2734       C  0.71857462  0.48767838  0.28321934    -0.18800
H2735       H  0.74279342  0.56661532  0.20004397     0.10300
H2736       H  0.74957384  0.55030284  0.23332877     0.10400
H2737       H  0.72553938  0.48657672  0.21210114     0.10000
H2738       H  0.71819999  0.50314911  0.17915446     0.11100
H2739       H  0.73575627  0.52111398  0.25807881     0.11200
H2740       H  0.74647216  0.47510672  0.24035857     0.13100
H2741       H  0.76262563  0.45388578  0.27207410     0.09600
H2742       H  0.75218478  0.43770730  0.30482023     0.11700
H2743       H  0.69791527  0.48483990  0.30931510     0.08300
H2744       H  0.70851801  0.50113648  0.27720352     0.11100
C2745       C  0.38129199  0.76041765  0.85625605    -0.03500
C2746       C  0.38779371  0.77929325  0.86736459    -0.06100
C2747       C  0.37447522  0.79864012  0.86748844    -0.21200
C2748       C  0.35456146  0.79965390  0.85633634     0.24500
C2749       C  0.34840878  0.78087915  0.84490196    -0.18800
C2750       C  0.36161459  0.76164857  0.84481446    -0.08700
C2751       C  0.33955423  0.81952541  0.85827113    -0.19000
C2752       C  0.32396894  0.82484335  0.84442894    -0.23800
C2753       C  0.30586537  0.84168607  0.84730451     0.26600
C2754       C  0.28654855  0.83952029  0.83556654    -0.20600
C2755       C  0.26821740  0.85354749  0.83852182    -0.10200
C2756       C  0.26877244  0.87045704  0.85311789    -0.10800
C2757       C  0.28849587  0.87349281  0.86422900    -0.03700
C2758       C  0.30686167  0.85916044  0.86144550    -0.18800
H2759       H  0.40273975  0.77885061  0.87648264     0.10300
H2760       H  0.37952755  0.81271710  0.87661495     0.10400
H2761       H  0.33288858  0.78044235  0.83665361     0.10000
H2762       H  0.35596451  0.74741114  0.83618377     0.11100
H2763       H  0.34081285  0.82925523  0.87193248     0.11200
H2764       H  0.32330547  0.81528078  0.83063450     0.13100
H2765       H  0.28531624  0.82638885  0.82444654     0.09600
H2766       H  0.25338271  0.85087679  0.82955434     0.11700
H2767       H  0.28944715  0.88643559  0.87552970     0.08300
H2768       H  0.32163801  0.86176655  0.87044326     0.11100
C2769       C  0.46999726  0.72005398  0.81105265    -0.03500
C2770       C  0.49120142  0.71034056  0.80935362    -0.06100
C2771       C  0.50506839  0.71544158  0.79319192    -0.21200
C2772       C  0.49797509  0.73000668  0.77795628     0.24500
C2773       C  0.47709391  0.74072294  0.78010022    -0.18800
C2774       C  0.46326340  0.73587960  0.79668208    -0.08700
C2775       C  0.51229376  0.73137141  0.75964687    -0.19000
C2776       C  0.50627238  0.73995077  0.74172089    -0.23800
C2777       C  0.51896125  0.73409742  0.72317638     0.26600
C2778       C  0.52153540  0.74949129  0.70735123    -0.20600
C2779       C  0.53244664  0.74320966  0.68947798    -0.10200
C2780       C  0.54031416  0.72123248  0.68700439    -0.10800
C2781       C  0.53770265  0.70600007  0.70290462    -0.03700
C2782       C  0.52723258  0.71230719  0.72067580    -0.18800
H2783       H  0.49679852  0.69815845  0.82029550     0.10300
H2784       H  0.52102701  0.70699549  0.79210033     0.10400
H2785       H  0.47108267  0.75224426  0.76883346     0.10000
H2786       H  0.44689220  0.74349512  0.79767875     0.11100
H2787       H  0.52815011  0.72256216  0.76039490     0.11200
H2788       H  0.49122202  0.74986005  0.74017710     0.13100
H2789       H  0.51505916  0.76630018  0.70881108     0.09600
H2790       H  0.53410732  0.75525702  0.67742548     0.11700
H2791       H  0.54357601  0.68894942  0.70153768     0.08300
H2792       H  0.52496171  0.69977297  0.73224124     0.11100
C2793       C  0.37704071  0.67959358  0.79895057    -0.03500
C2794       C  0.38854963  0.68100682  0.78059985    -0.06100
C2795       C  0.37730855  0.67795401  0.76251744    -0.21200
C2796       C  0.35437993  0.67322875  0.76234008     0.24500
C2797       C  0.34257070  0.67290562  0.78061770    -0.18800
C2798       C  0.35383435  0.67603861  0.79876982    -0.08700
C2799       C  0.34385150  0.66757981  0.74288782    -0.19000
C2800       C  0.32635841  0.65356764  0.74136063    -0.23800
C2801       C  0.31982641  0.64329714  0.72203751     0.26600
C2802       C  0.31154422  0.62138882  0.72227501    -0.20600
C2803       C  0.30808318  0.60987667  0.70438313    -0.10200
C2804       C  0.31249467  0.62020279  0.68586045    -0.10800
C2805       C  0.31933626  0.64266288  0.68554234    -0.03700
C2806       C  0.32302736  0.65413046  0.70349644    -0.18800
H2807       H  0.40639836  0.68395760  0.78019157     0.10300
H2808       H  0.38674774  0.67846084  0.74864532     0.10400
H2809       H  0.32473329  0.67001913  0.78099412     0.10000
H2810       H  0.34446930  0.67514623  0.81265866     0.11100
H2811       H  0.35274558  0.67256836  0.72939982     0.11200
H2812       H  0.31878642  0.64678446  0.75485894     0.13100
H2813       H  0.30873113  0.61278314  0.73636218     0.09600
H2814       H  0.30243772  0.59268763  0.70507401     0.11700
H2815       H  0.32259584  0.65111030  0.67145962     0.08300
H2816       H  0.32873667  0.67128084  0.70281335     0.11100
C2817       C  0.48594418  0.66089752  0.87353392    -0.03500
C2818       C  0.48755543  0.63746159  0.87391561    -0.06100
C2819       C  0.50819932  0.62697793  0.87658492    -0.21200
C2820       C  0.52781800  0.63955273  0.87901745     0.24500
C2821       C  0.52613624  0.66304426  0.87947186    -0.18800
C2822       C  0.50540249  0.67356915  0.87680695    -0.08700
C2823       C  0.54961354  0.62744842  0.87901161    -0.19000
C2824       C  0.56945174  0.63645960  0.88418969    -0.23800
C2825       C  0.59106533  0.62441100  0.88148081     0.26600
C2826       C  0.60949937  0.63003000  0.89349045    -0.20600
C2827       C  0.63039644  0.62000204  0.89030390    -0.10200
C2828       C  0.63336858  0.60435820  0.87480023    -0.10800
C2829       C  0.61484041  0.59861054  0.86292868    -0.03700
C2830       C  0.59400788  0.60850817  0.86617437    -0.18800
H2831       H  0.47294984  0.62714410  0.87143276     0.10300
H2832       H  0.50892375  0.60889256  0.87611571     0.10400
H2833       H  0.54080842  0.67344551  0.88094249     0.10000
H2834       H  0.50478596  0.69165057  0.87644064     0.11100
H2835       H  0.54920650  0.61010895  0.87423773     0.11200
H2836       H  0.57007453  0.65305443  0.89069297     0.13100
H2837       H  0.60778399  0.64241633  0.90522757     0.09600
H2838       H  0.64436488  0.62501812  0.89955942     0.11700
H2839       H  0.61655322  0.58685206  0.85068617     0.08300
H2840       H  0.58050177  0.60425756  0.85612285     0.11100
C2841       C  0.38531455  0.62172340  0.86632153    -0.03500
C2842       C  0.36843708  0.61861279  0.88077662    -0.06100
C2843       C  0.35791396  0.59776453  0.88297248    -0.21200
C2844       C  0.36420208  0.57950423  0.87098431     0.24500
C2845       C  0.38129467  0.58262668  0.85670375    -0.18800
C2846       C  0.39171984  0.60338768  0.85448034    -0.08700
C2847       C  0.35167465  0.55795168  0.87261548    -0.19000
C2848       C  0.36052828  0.53820000  0.86695226    -0.23800
C2849       C  0.34805659  0.51667171  0.86539915     0.26600
C2850       C  0.35759835  0.49973108  0.85366747    -0.20600
C2851       C  0.34657419  0.47947080  0.85075647    -0.10200
C2852       C  0.32572242  0.47533950  0.85973645    -0.10800
C2853       C  0.31631712  0.49194802  0.87204157    -0.03700
C2854       C  0.32731343  0.51251341  0.87478207    -0.18800
H2855       H  0.36293202  0.63243496  0.89000884     0.10300
H2856       H  0.34464305  0.59595459  0.89391987     0.10400
H2857       H  0.38616235  0.56937300  0.84659748     0.10000
H2858       H  0.40447037  0.60520042  0.84304904     0.11100
H2859       H  0.33461978  0.55867803  0.87808461     0.11200
H2860       H  0.37784912  0.53780474  0.86213433     0.13100
H2861       H  0.37357511  0.50231837  0.84634665     0.09600
H2862       H  0.35445574  0.46698350  0.84137697     0.11700
H2863       H  0.30031696  0.48919447  0.87924611     0.08300
H2864       H  0.31956603  0.52492158  0.88427040     0.11100
C2865       C  0.37962268  0.76699160  0.13625599    -0.03500
C2866       C  0.36406297  0.76722731  0.15203948    -0.06100
C2867       C  0.35017793  0.78562957  0.15507513    -0.21200
C2868       C  0.35110552  0.80422870  0.14224933     0.24500
C2869       C  0.36731509  0.80446575  0.12684168    -0.18800
C2870       C  0.38154826  0.78602319  0.12397445    -0.08700
C2871       C  0.33412436  0.82218437  0.14532950    -0.19000
C2872       C  0.32863015  0.83800934  0.13176002    -0.23800
C2873       C  0.30872396  0.85282365  0.13419807     0.26600
C2874       C  0.30798932  0.87349877  0.12418147    -0.20600
C2875       C  0.28866814  0.88677783  0.12474661    -0.10200
C2876       C  0.26949742  0.87945073  0.13507985    -0.10800
C2877       C  0.27040176  0.85896834  0.14540266    -0.03700
C2878       C  0.28969059  0.84582102  0.14495831    -0.18800
H2879       H  0.36231985  0.75290972  0.16188601     0.10300
H2880       H  0.33806278  0.78495806  0.16716110     0.10400
H2881       H  0.36895885  0.81861598  0.11685562     0.10000
H2882       H  0.39342142  0.78628531  0.11170009     0.11100
H2883       H  0.32462539  0.82134707  0.15919905     0.11200
H2884       H  0.33828798  0.83978560  0.11807456     0.13100
H2885       H  0.32228357  0.87920958  0.11559789     0.09600
H2886       H  0.28846085  0.90235847  0.11646423     0.11700
H2887       H  0.25590442  0.85271768  0.15338247     0.08300
H2888       H  0.28916588  0.82971572  0.15232449     0.11100
C2889       C  0.48890702  0.67365658  0.11737467    -0.03500
C2890       C  0.49038735  0.65041640  0.11454728    -0.06100
C2891       C  0.51109669  0.63988423  0.11300459    -0.21200
C2892       C  0.53097557  0.65221395  0.11404706     0.24500
C2893       C  0.52962182  0.67566417  0.11584301    -0.18800
C2894       C  0.50874337  0.68627848  0.11745913    -0.08700
C2895       C  0.55239214  0.63957880  0.11520052    -0.19000
C2896       C  0.57279149  0.64834194  0.11181632    -0.23800
C2897       C  0.59375338  0.63533998  0.11495819     0.26600
C2898       C  0.61302552  0.64099438  0.10404189    -0.20600
C2899       C  0.63334277  0.63010229  0.10771260    -0.10200
C2900       C  0.63491961  0.61355906  0.12267432    -0.10800
C2901       C  0.61553440  0.60763598  0.13335479    -0.03700
C2902       C  0.59521484  0.61837435  0.12956845    -0.18800
H2903       H  0.47549266  0.64013208  0.11432683     0.10300
H2904       H  0.51157672  0.62185226  0.11162239     0.10400
H2905       H  0.54455137  0.68575694  0.11703201     0.10000
H2906       H  0.50818523  0.70417929  0.11976430     0.11100
H2907       H  0.55115110  0.62195313  0.11894810     0.11200
H2908       H  0.57431113  0.66533658  0.10627715     0.13100
H2909       H  0.61241570  0.65407166  0.09280173     0.09600
H2910       H  0.64797563  0.63516017  0.09927489     0.11700
H2911       H  0.61617292  0.59506673  0.14504617     0.08300
H2912       H  0.58092691  0.61393263  0.13869933     0.11100
C2913       C  0.39222842  0.62969340  0.11517238    -0.03500
C2914       C  0.40237860  0.61101101  0.12407459    -0.06100
C2915       C  0.39446975  0.58949131  0.12033593    -0.21200
C2916       C  0.37598155  0.58594433  0.10782180     0.24500
C2917       C  0.36625571  0.60454391  0.09818822    -0.18800
C2918       C  0.37438987  0.62623088  0.10179798    -0.08700
C2919       C  0.36743354  0.56260052  0.10598519    -0.19000
C2920       C  0.34662373  0.55694035  0.10006136    -0.23800
C2921       C  0.33754573  0.53375957  0.10229298     0.26600
C2922       C  0.31434060  0.53073473  0.10409551    -0.20600
C2923       C  0.30536537  0.50970767  0.10879761    -0.10200
C2924       C  0.31943252  0.49117860  0.11174986    -0.10800
C2925       C  0.34250986  0.49388369  0.10861825    -0.03700
C2926       C  0.35144960  0.51482943  0.10378347    -0.18800
H2927       H  0.41625503  0.61304255  0.13431375     0.10300
H2928       H  0.40247027  0.57555380  0.12782158     0.10400
H2929       H  0.35233357  0.60250884  0.08804233     0.10000
H2930       H  0.36625356  0.64031665  0.09467405     0.11100
H2931       H  0.37825869  0.54967104  0.11190301     0.11200
H2932       H  0.33505033  0.56995282  0.09557614     0.13100
H2933       H  0.30316189  0.54488244  0.10271875     0.09600
H2934       H  0.28749038  0.50817467  0.11089273     0.11700
H2935       H  0.35379328  0.47986919  0.11034517     0.08300
H2936       H  0.36929542  0.51606325  0.10155198     0.11100
C2937       C  0.41382508  0.71589836  0.06496272    -0.03500
C2938       C  0.43401323  0.71802151  0.05433836    -0.06100
C2939       C  0.43418652  0.71861460  0.03341906    -0.21200
C2940       C  0.41427132  0.71688773  0.02248158     0.24500
C2941       C  0.39393584  0.71504260  0.03303494    -0.18800
C2942       C  0.39374696  0.71454551  0.05408119    -0.08700
C2943       C  0.41578369  0.71736701  0.00019608    -0.19000
C2944       C  0.40020118  0.70894383  0.98772907    -0.23800
C2945       C  0.40316197  0.70803104  0.96552529     0.26600
C2946       C  0.38421564  0.70634646  0.95322477    -0.20600
C2947       C  0.38637971  0.70498168  0.93233342    -0.10200
C2948       C  0.40761108  0.70506648  0.92326480    -0.10800
C2949       C  0.42658467  0.70646175  0.93559390    -0.03700
C2950       C  0.42442412  0.70782716  0.95643582    -0.18800
H2951       H  0.44979709  0.71911722  0.06218047     0.10300
H2952       H  0.45007298  0.72014771  0.02571691     0.10400
H2953       H  0.37816328  0.71425216  0.02519751     0.10000
H2954       H  0.37789270  0.71303038  0.06182058     0.11100
H2955       H  0.43100230  0.72433416  0.99391920     0.11200
H2956       H  0.38476575  0.70226526  0.99383306     0.13100
H2957       H  0.36765586  0.70619216  0.95980370     0.09600
H2958       H  0.37141244  0.70383619  0.92329620     0.11700
H2959       H  0.44320406  0.70634648  0.92914921     0.08300
H2960       H  0.43952788  0.70819015  0.96529047     0.11100
C2961       C  0.53233093  0.72630926  0.30764164    -0.03500
C2962       C  0.54268646  0.74255580  0.29558392    -0.06100
C2963       C  0.53362395  0.74819118  0.27686199    -0.21200
C2964       C  0.51369048  0.73826381  0.27021875     0.24500
C2965       C  0.50275309  0.72287214  0.28281565    -0.18800
C2966       C  0.51211871  0.71679427  0.30122890    -0.08700
C2967       C  0.50626584  0.74165057  0.24917473    -0.19000
C2968       C  0.48465890  0.74092702  0.24358468    -0.23800
C2969       C  0.47767005  0.73865819  0.22229948     0.26600
C2970       C  0.45715137  0.74757846  0.21591865    -0.20600
C2971       C  0.44882977  0.74274949  0.19673372    -0.10200
C2972       C  0.46057358  0.72828713  0.18394194    -0.10800
C2973       C  0.48132477  0.71984588  0.19012513    -0.03700
C2974       C  0.48991952  0.72516718  0.20899607    -0.18800
H2975       H  0.55838027  0.74997609  0.30014548     0.10300
H2976       H  0.54248798  0.75987997  0.26731095     0.10400
H2977       H  0.48765878  0.71452322  0.27796023     0.10000
H2978       H  0.50382984  0.70421188  0.31027677     0.11100
H2979       H  0.51912418  0.74374779  0.23780402     0.11200
H2980       H  0.47166669  0.74089704  0.25498417     0.13100
H2981       H  0.44728295  0.75777498  0.22600064     0.09600
H2982       H  0.43264030  0.74919148  0.19237228     0.11700
H2983       H  0.49058873  0.70853151  0.18055167     0.08300
H2984       H  0.50550370  0.71757505  0.21360428     0.11100
C2985       C  0.37337134  0.68169729  0.18495759    -0.03500
C2986       C  0.35105599  0.67484992  0.18293735    -0.06100
C2987       C  0.33844540  0.66930873  0.19986141    -0.21200
C2988       C  0.34777642  0.67073777  0.21910388     0.24500
C2989       C  0.36987112  0.67842169  0.22117121    -0.18800
C2990       C  0.38249571  0.68388104  0.20425603    -0.08700
C2991       C  0.33503376  0.66144623  0.23624506    -0.19000
C2992       C  0.33994312  0.66559255  0.25555704    -0.23800
C2993       C  0.33037301  0.65220815  0.27216234     0.26600
C2994       C  0.32906332  0.66144623  0.29144263    -0.20600
C2995       C  0.32212217  0.64836303  0.30769408    -0.10200
C2996       C  0.31670112  0.62570388  0.30493286    -0.10800
C2997       C  0.31768371  0.61660385  0.28556651    -0.03700
C2998       C  0.32452587  0.62965713  0.26937973    -0.18800
H2999       H  0.34358698  0.67297574  0.16825684     0.10300
H3000       H  0.32153890  0.66323098  0.19787206     0.10400
H3001       H  0.37792164  0.67920176  0.23565367     0.10000
H3002       H  0.39966273  0.68915155  0.20628097     0.11100
H3003       H  0.32156607  0.64993338  0.23272774     0.11200
H3004       H  0.35173316  0.67867516  0.25941596     0.13100
H3005       H  0.33375878  0.67870166  0.29396941     0.09600
H3006       H  0.32160334  0.65582107  0.32247815     0.11700
H3007       H  0.31377515  0.59917393  0.28296440     0.08300
H3008       H  0.32611145  0.62170963  0.25488380     0.11100
loop_ 
_geom_bond_atom_site_label_1 
_geom_bond_atom_site_label_2 
_geom_bond_distance 
_geom_bond_site_symmetry_2 
_ccdc_geom_bond_type 
O1          Cr19   2.013       .  S
O1            C9   1.269       .  A
O2          Cr19   1.967       .  S
O2            C3   1.257       .  A
C3            O4   1.268       .  A
C3         C2865   1.484       .  S
O4          Cr20   2.030       .  S
O5          Cr20   1.995       .  S
O5            C6   1.261       .  A
C6            O7   1.264       .  A
C6         C2972   1.477       .  S
O7          Cr21   2.008       .  S
O8          Cr21   1.965       .  S
O8            C9   1.260       .  A
C9         C2985   1.475       .  S
O10         Cr19   1.987       .  S
O10          C18   1.261       .  A
O11         Cr19   2.018       .  S
O11          C12   1.270       .  A
C12          O13   1.262       .  A
C12        C2937   1.485       .  S
O13         Cr20   1.970       .  S
O14         Cr20   2.042       .  S
O14          C15   1.274       .  A
C15          O16   1.260       .  A
C15        C2889   1.487       .  S
O16         Cr21   1.961       .  S
O17         Cr21   2.005       .  S
O17          C18   1.265       .  A
C18        C2913   1.485       .  S
Cr19         O22   1.770       .  S
Cr20         O22   1.772       .  S
Cr21         O22   1.761       .  S
O23         Cr41   1.965       .  S
O23          C31   1.260       .  A
O24         Cr41   2.002       .  S
O24          C25   1.263       .  A
C25          O26   1.262       .  A
C25        C2769   1.477       .  S
O26         Cr42   2.001       .  S
O27         Cr42   2.027       .  S
O27          C28   1.268       .  A
C28          O29   1.257       .  A
C28        C2745   1.489       .  S
O29         Cr43   1.968       .  S
O30         Cr43   2.018       .  S
O30          C31   1.270       .  A
C31        C2793   1.478       .  S
O32         Cr41   2.007       .  S
O32          C40   1.265       .  A
O33         Cr41   1.971       .  S
O33          C34   1.262       .  A
C34          O35   1.273       .  A
C34        C2817   1.487       .  S
O35         Cr42   2.033       .  S
O36         Cr42   1.975       .  S
O36          C37   1.262       .  A
C37          O38   1.269       .  A
C37        C2948   1.486       .  S
O38         Cr43   2.016       .  S
O39         Cr43   1.986       .  S
O39          C40   1.260       .  A
C40        C2841   1.488       .  S
Cr41         O44   1.765       .  S
Cr42         O44   1.774       .  S
Cr43         O44   1.771       .  S
O45         Cr63   2.027       .  S
O45          C53   1.271       .  A
O46         Cr63   1.966       .  S
O46          C47   1.256       .  A
C47          O48   1.269       .  A
C47        C2625   1.489       .  S
O48         Cr64   2.034       .  S
O49         Cr64   1.995       .  S
O49          C50   1.262       .  A
C50          O51   1.264       .  A
C50        C2721   1.474       .  S
O51         Cr65   2.011       .  S
O52         Cr65   1.965       .  S
O52          C53   1.260       .  A
C53        C2708   1.482       .  S
O54         Cr63   1.978       .  S
O54          C62   1.258       .  A
O55         Cr63   2.021       .  S
O55          C56   1.271       .  A
C56          O57   1.262       .  A
C56        C2673   1.486       .  S
O57         Cr64   1.972       .  S
O58         Cr64   2.040       .  S
O58          C59   1.274       .  A
C59          O60   1.261       .  A
C59        C2649   1.488       .  S
O60         Cr65   1.966       .  S
O61         Cr65   2.014       .  S
O61          C62   1.266       .  A
C62        C2900   1.486       .  S
Cr63         O66   1.767       .  S
Cr64         O66   1.772       .  S
Cr65         O66   1.763       .  S
O67         Cr85   1.963       .  S
O67          C75   1.259       .  A
O68         Cr85   1.993       .  S
O68          C69   1.263       .  A
C69          O70   1.264       .  A
C69        C2577   1.483       .  S
O70         Cr86   2.000       .  S
O71         Cr86   2.028       .  S
O71          C72   1.269       .  A
C72          O73   1.259       .  A
C72        C2529   1.493       .  S
O73         Cr87   1.974       .  S
O74         Cr87   2.015       .  S
O74          C75   1.268       .  A
C75        C2553   1.476       .  S
O76         Cr85   2.004       .  S
O76          C84   1.264       .  A
O77         Cr85   1.969       .  S
O77          C78   1.261       .  A
C78          O79   1.272       .  A
C78        C2601   1.485       .  S
O79         Cr86   2.027       .  S
O80         Cr86   1.976       .  S
O80          C81   1.262       .  A
C81          O82   1.269       .  A
C81        C2684   1.486       .  S
O82         Cr87   2.014       .  S
O83         Cr87   1.987       .  S
O83          C84   1.260       .  A
C84        C2828   1.487       .  S
Cr85         O88   1.766       .  S
Cr86         O88   1.778       .  S
Cr87         O88   1.774       .  S
O89        Cr107   2.006       .  S
O89          C97   1.267       .  A
O90        Cr107   1.967       .  S
O90          C91   1.256       .  A
C91          O92   1.268       .  A
C91        C2409   1.488       .  S
O92        Cr108   2.032       .  S
O93        Cr108   1.997       .  S
O93          C94   1.264       .  A
C94          O95   1.265       .  A
C94        C2505   1.479       .  S
O95        Cr109   2.006       .  S
O96        Cr109   1.972       .  S
O96          C97   1.262       .  A
C97        C2481   1.477       .  S
O98        Cr107   1.984       .  S
O98         C106   1.261       .  A
O99        Cr107   2.015       .  S
O99         C100   1.268       .  A
C100        O101   1.261       .  A
C100       C2468   1.478       .  S
O101       Cr108   1.975       .  S
O102       Cr108   2.025       .  S
O102        C103   1.271       .  A
C103        O104   1.263       .  A
C103       C2433   1.486       .  S
O104       Cr109   1.978       .  S
O105       Cr109   2.009       .  S
O105        C106   1.266       .  A
C106       C2660   1.488       .  S
Cr107       O110   1.770       .  S
Cr108       O110   1.772       .  S
Cr109       O110   1.766       .  S
O111       Cr129   1.985       .  S
O111        C119   1.261       .  A
O112       Cr129   1.981       .  S
O112        C113   1.262       .  A
C113        O114   1.269       .  A
C113       C2361   1.484       .  S
O114       Cr130   2.014       .  S
O115       Cr130   2.001       .  S
O115        C116   1.264       .  A
C116        O117   1.263       .  A
C116       C2324   1.490       .  S
O117       Cr131   1.994       .  S
O118       Cr131   1.999       .  S
O118        C119   1.263       .  A
C119       C2337   1.478       .  S
O120       Cr129   1.991       .  S
O120        C128   1.265       .  A
O121       Cr129   1.987       .  S
O121        C122   1.262       .  A
C122        O123   1.265       .  A
C122       C2396   1.489       .  S
O123       Cr130   2.006       .  S
O124       Cr130   2.016       .  S
O124        C125   1.269       .  A
C125        O126   1.261       .  A
C125       C2457   1.482       .  S
O126       Cr131   1.977       .  S
O127       Cr131   1.999       .  S
O127        C128   1.265       .  A
C128       C2612   1.483       .  S
Cr129       O132   1.770       .  S
Cr130       O132   1.781       .  S
Cr131       O132   1.772       .  S
O133       Cr151   2.008       .  S
O133        C141   1.268       .  A
O134       Cr151   1.975       .  S
O134        C135   1.258       .  A
C135        O136   1.267       .  A
C135       C2217   1.489       .  S
O136       Cr152   2.022       .  S
O137       Cr152   1.998       .  S
O137        C138   1.262       .  A
C138        O139   1.263       .  A
C138       C2276   1.474       .  S
O139       Cr153   2.004       .  S
O140       Cr153   1.979       .  S
O140        C141   1.263       .  A
C141       C2289   1.481       .  S
O142       Cr151   1.987       .  S
O142        C150   1.260       .  A
O143       Cr151   2.008       .  S
O143        C144   1.269       .  A
C144        O145   1.264       .  A
C144       C2252   1.485       .  S
O145       Cr152   1.982       .  S
O146       Cr152   2.029       .  S
O146        C147   1.272       .  A
C147        O148   1.262       .  A
C147       C2924   1.488       .  S
O148       Cr153   1.975       .  S
O149       Cr153   2.001       .  S
O149        C150   1.264       .  A
C150       C2444   1.484       .  S
Cr151       O154   1.770       .  S
Cr152       O154   1.775       .  S
Cr153       O154   1.768       .  S
O155       Cr173   1.998       .  S
O155        C163   1.263       .  A
O156       Cr173   1.977       .  S
O156        C157   1.261       .  A
C157        O158   1.268       .  A
C157       C2180   1.485       .  S
O158       Cr174   2.020       .  S
O159       Cr174   2.001       .  S
O159        C160   1.264       .  A
C160        O161   1.263       .  A
C160       C2156   1.488       .  S
O161       Cr175   1.993       .  S
O162       Cr175   1.989       .  S
O162        C163   1.261       .  A
C163       C2193   1.463       .  S
O164       Cr173   1.984       .  S
O164        C172   1.262       .  A
O165       Cr173   1.996       .  S
O165        C166   1.265       .  A
C166        O167   1.264       .  A
C166       C2852   1.486       .  S
O167       Cr174   1.995       .  S
O168       Cr174   2.018       .  S
O168        C169   1.270       .  A
C169        O170   1.263       .  A
C169       C2241   1.485       .  S
O170       Cr175   1.975       .  S
O171       Cr175   2.009       .  S
O171        C172   1.266       .  A
C172       C2385   1.486       .  S
Cr173       O176   1.768       .  S
Cr174       O176   1.778       .  S
Cr175       O176   1.770       .  S
O177       Cr195   2.014       .  S
O177        C185   1.269       .  A
O178       Cr195   1.970       .  S
O178        C179   1.258       .  A
C179        O180   1.268       .  A
C179       C2049   1.482       .  S
O180       Cr196   2.030       .  S
O181       Cr196   1.999       .  S
O181        C182   1.263       .  A
C182        O183   1.264       .  A
C182       C2732   1.483       .  S
O183       Cr197   2.006       .  S
O184       Cr197   1.967       .  S
O184        C185   1.260       .  A
C185       C2492   1.477       .  S
O186       Cr195   1.985       .  S
O186        C194   1.261       .  A
O187       Cr195   2.015       .  S
O187        C188   1.269       .  A
C188        O189   1.262       .  A
C188       C2121   1.485       .  S
O189       Cr196   1.974       .  S
O190       Cr196   2.037       .  S
O190        C191   1.273       .  A
C191        O192   1.260       .  A
C191       C2084   1.485       .  S
O192       Cr197   1.962       .  S
O193       Cr197   2.008       .  S
O193        C194   1.265       .  A
C194       C2097   1.486       .  S
Cr195       O198   1.769       .  S
Cr196       O198   1.774       .  S
Cr197       O198   1.763       .  S
O199       Cr217   1.964       .  S
O199        C207   1.261       .  A
O200       Cr217   1.998       .  S
O200        C201   1.261       .  A
C201        O202   1.262       .  A
C201       C2588   1.474       .  S
O202       Cr218   2.003       .  S
O203       Cr218   2.021       .  S
O203        C204   1.266       .  A
C204        O205   1.258       .  A
C204       C1977   1.491       .  S
O205       Cr219   1.973       .  S
O206       Cr219   2.024       .  S
O206        C207   1.272       .  A
C207       C2348   1.479       .  S
O208       Cr217   1.999       .  S
O208        C216   1.261       .  A
O209       Cr217   1.974       .  S
O209        C210   1.263       .  A
C210        O211   1.274       .  A
C210       C2001   1.485       .  S
O211       Cr218   2.030       .  S
O212       Cr218   1.967       .  S
O212        C213   1.262       .  A
C213        O214   1.271       .  A
C213       C2132   1.485       .  S
O214       Cr219   2.020       .  S
O215       Cr219   1.987       .  S
O215        C216   1.259       .  A
C216       C2036   1.484       .  S
Cr217       O220   1.768       .  S
Cr218       O220   1.774       .  S
Cr219       O220   1.775       .  S
O221       Cr239   2.024       .  S
O221        C229   1.271       .  A
O222       Cr239   1.969       .  S
O222        C223   1.256       .  A
C223        O224   1.265       .  A
C223       C1905   1.482       .  S
O224       Cr240   2.016       .  S
O225       Cr240   1.989       .  S
O225        C226   1.262       .  A
C226        O227   1.266       .  A
C226       C2961   1.478       .  S
O227       Cr241   2.013       .  S
O228       Cr241   1.969       .  S
O228        C229   1.261       .  A
C229       C2697   1.485       .  S
O230       Cr239   1.975       .  S
O230        C238   1.257       .  A
O231       Cr239   2.022       .  S
O231        C232   1.272       .  A
C232        O233   1.262       .  A
C232       C1953   1.481       .  S
O233       Cr240   1.965       .  S
O234       Cr240   2.024       .  S
O234        C235   1.271       .  A
C235        O236   1.263       .  A
C235       C1940   1.487       .  S
O236       Cr241   1.980       .  S
O237       Cr241   2.011       .  S
O237        C238   1.266       .  A
C238       C2073   1.485       .  S
Cr239       O242   1.771       .  S
Cr240       O242   1.772       .  S
Cr241       O242   1.766       .  S
O243       Cr261   1.969       .  S
O243        C251   1.261       .  A
O244       Cr261   1.993       .  S
O244        C245   1.262       .  A
C245        O246   1.264       .  A
C245       C2780   1.485       .  S
O246       Cr262   2.004       .  S
O247       Cr262   2.026       .  S
O247        C248   1.269       .  A
C248        O249   1.259       .  A
C248       C1868   1.489       .  S
O249       Cr263   1.972       .  S
O250       Cr263   2.009       .  S
O250        C251   1.268       .  A
C251       C2564   1.476       .  S
O252       Cr261   1.996       .  S
O252        C260   1.262       .  A
O253       Cr261   1.970       .  S
O253        C254   1.261       .  A
C254        O255   1.272       .  A
C254       C1881   1.482       .  S
O255       Cr262   2.028       .  S
O256       Cr262   1.980       .  S
O256        C257   1.262       .  A
C257        O258   1.267       .  A
C257       C1964   1.483       .  S
O258       Cr263   2.004       .  S
O259       Cr263   1.991       .  S
O259        C260   1.260       .  A
C260       C2012   1.483       .  S
Cr261       O264   1.763       .  S
Cr262       O264   1.777       .  S
Cr263       O264   1.772       .  S
O265       Cr283   2.009       .  S
O265        C273   1.268       .  A
O266       Cr283   1.972       .  S
O266        C267   1.258       .  A
C267        O268   1.267       .  A
C267       C1796   1.487       .  S
O268       Cr284   2.026       .  S
O269       Cr284   1.994       .  S
O269        C270   1.261       .  A
C270        O271   1.263       .  A
C270       C2265   1.481       .  S
O271       Cr285   2.004       .  S
O272       Cr285   1.967       .  S
O272        C273   1.262       .  A
C273       C2996   1.475       .  S
O274       Cr283   1.991       .  S
O274        C282   1.261       .  A
O275       Cr283   2.013       .  S
O275        C276   1.269       .  A
C276        O277   1.260       .  A
C276       C1844   1.480       .  S
O277       Cr284   1.964       .  S
O278       Cr284   2.030       .  S
O278        C279   1.273       .  A
C279        O280   1.261       .  A
C279       C1809   1.484       .  S
O280       Cr285   1.969       .  S
O281       Cr285   1.998       .  S
O281        C282   1.263       .  A
C282       C1929   1.485       .  S
Cr283       O286   1.773       .  S
Cr284       O286   1.775       .  S
Cr285       O286   1.764       .  S
O287       Cr305   1.967       .  S
O287        C295   1.260       .  A
O288       Cr305   1.999       .  S
O288        C289   1.264       .  A
C289        O290   1.263       .  A
C289       C2169   1.481       .  S
O290       Cr306   1.998       .  S
O291       Cr306   2.029       .  S
O291        C292   1.269       .  A
C292        O293   1.258       .  A
C292       C1737   1.488       .  S
O293       Cr307   1.969       .  S
O294       Cr307   2.013       .  S
O294        C295   1.268       .  A
C295       C2804   1.475       .  S
O296       Cr305   2.005       .  S
O296        C304   1.264       .  A
O297       Cr305   1.970       .  S
O297        C298   1.261       .  A
C298        O299   1.273       .  A
C298       C1761   1.487       .  S
O299       Cr306   2.034       .  S
O300       Cr306   1.973       .  S
O300        C301   1.262       .  A
C301        O302   1.268       .  A
C301       C1833   1.480       .  S
O302       Cr307   2.008       .  S
O303       Cr307   1.982       .  S
O303        C304   1.259       .  A
C304       C1892   1.481       .  S
Cr305       O308   1.763       .  S
Cr306       O308   1.774       .  S
Cr307       O308   1.771       .  S
O309       Cr327   2.012       .  S
O309        C317   1.268       .  A
O310       Cr327   1.977       .  S
O310        C311   1.260       .  A
C311        O312   1.270       .  A
C311       C1689   1.490       .  S
O312       Cr328   2.031       .  S
O313       Cr328   1.993       .  S
O313        C314   1.261       .  A
C314        O315   1.262       .  A
C314       C2516   1.473       .  S
O315       Cr329   2.004       .  S
O316       Cr329   1.974       .  S
O316        C317   1.262       .  A
C317       C2300   1.480       .  S
O318       Cr327   1.992       .  S
O318        C326   1.263       .  A
O319       Cr327   2.014       .  S
O319        C320   1.268       .  A
C320        O321   1.262       .  A
C320       C1713   1.483       .  S
O321       Cr328   1.976       .  S
O322       Cr328   2.040       .  S
O322        C323   1.274       .  A
C323        O324   1.259       .  A
C323       C2108   1.489       .  S
O324       Cr329   1.966       .  S
O325       Cr329   1.995       .  S
O325        C326   1.264       .  A
C326       C1820   1.482       .  S
Cr327       O330   1.771       .  S
Cr328       O330   1.772       .  S
Cr329       O330   1.763       .  S
O331       Cr349   1.966       .  S
O331        C339   1.259       .  A
O332       Cr349   2.000       .  S
O332        C333   1.265       .  A
C333        O334   1.264       .  A
C333       C2372   1.475       .  S
O334       Cr350   1.989       .  S
O335       Cr350   2.023       .  S
O335        C336   1.267       .  A
C336        O337   1.258       .  A
C336       C1676   1.488       .  S
O337       Cr351   1.975       .  S
O338       Cr351   2.014       .  S
O338        C339   1.267       .  A
C339       C2204   1.479       .  S
O340       Cr349   2.010       .  S
O340        C348   1.266       .  A
O341       Cr349   1.982       .  S
O341        C342   1.262       .  A
C342        O343   1.268       .  A
C342       C2025   1.486       .  S
O343       Cr350   2.013       .  S
O344       Cr350   1.972       .  S
O344        C345   1.261       .  A
C345        O346   1.269       .  A
C345       C1724   1.484       .  S
O346       Cr351   2.016       .  S
O347       Cr351   1.980       .  S
O347        C348   1.260       .  A
C348       C1772   1.486       .  S
Cr349       O352   1.768       .  S
Cr350       O352   1.776       .  S
Cr351       O352   1.775       .  S
O353       Cr371   2.006       .  S
O353        C361   1.268       .  A
O354       Cr371   1.969       .  S
O354        C355   1.258       .  A
C355        O356   1.269       .  A
C355       C1988   1.490       .  S
O356       Cr372   2.029       .  S
O357       Cr372   2.011       .  S
O357        C358   1.264       .  A
C358        O359   1.261       .  A
C358       C1617   1.480       .  S
O359       Cr373   1.994       .  S
O360       Cr373   1.975       .  S
O360        C361   1.263       .  A
C361       C1652   1.477       .  S
O362       Cr371   1.990       .  S
O362        C370   1.261       .  A
O363       Cr371   2.007       .  S
O363        C364   1.267       .  A
C364        O365   1.263       .  A
C364       C1593   1.488       .  S
O365       Cr372   1.985       .  S
O366       Cr372   2.030       .  S
O366        C367   1.273       .  A
C367        O368   1.262       .  A
C367       C1545   1.483       .  S
O368       Cr373   1.968       .  S
O369       Cr373   1.998       .  S
O369        C370   1.262       .  A
C370       C1569   1.484       .  S
Cr371       O374   1.771       .  S
Cr372       O374   1.776       .  S
Cr373       O374   1.766       .  S
O375       Cr393   1.959       .  S
O375        C383   1.258       .  A
O376       Cr393   1.990       .  S
O376        C377   1.261       .  A
C377        O378   1.263       .  A
C377       C1473   1.483       .  S
O378       Cr394   2.003       .  S
O379       Cr394   2.028       .  S
O379        C380   1.269       .  A
C380        O381   1.258       .  A
C380       C2060   1.488       .  S
O381       Cr395   1.967       .  S
O382       Cr395   2.023       .  S
O382        C383   1.271       .  A
C383       C1449   1.475       .  S
O384       Cr393   2.000       .  S
O384        C392   1.262       .  A
O385       Cr393   1.966       .  S
O385        C386   1.262       .  A
C386        O387   1.273       .  A
C386       C1508   1.483       .  S
O387       Cr394   2.028       .  S
O388       Cr394   1.974       .  S
O388        C389   1.262       .  A
C389        O390   1.269       .  A
C389       C1604   1.487       .  S
O390       Cr395   2.018       .  S
O391       Cr395   1.991       .  S
O391        C392   1.260       .  A
C392       C1521   1.486       .  S
Cr393       O396   1.764       .  S
Cr394       O396   1.774       .  S
Cr395       O396   1.773       .  S
O397       Cr415   2.012       .  S
O397        C405   1.268       .  A
O398       Cr415   1.971       .  S
O398        C399   1.259       .  A
C399        O400   1.269       .  A
C399       C1748   1.484       .  S
O400       Cr416   2.026       .  S
O401       Cr416   1.996       .  S
O401        C402   1.261       .  A
C402        O403   1.262       .  A
C402       C1401   1.482       .  S
O403       Cr417   1.991       .  S
O404       Cr417   1.968       .  S
O404        C405   1.260       .  A
C405       C1425   1.477       .  S
O406       Cr415   1.996       .  S
O406        C414   1.263       .  A
O407       Cr415   2.011       .  S
O407        C408   1.268       .  A
C408        O409   1.262       .  A
C408       C1377   1.483       .  S
O409       Cr416   1.975       .  S
O410       Cr416   2.037       .  S
O410        C411   1.274       .  A
C411        O412   1.260       .  A
C411       C1340   1.484       .  S
O412       Cr417   1.964       .  S
O413       Cr417   1.995       .  S
O413        C414   1.263       .  A
C414       C1364   1.483       .  S
Cr415       O418   1.770       .  S
Cr416       O418   1.777       .  S
Cr417       O418   1.760       .  S
O419       Cr437   1.968       .  S
O419        C427   1.260       .  A
O420       Cr437   1.995       .  S
O420        C421   1.262       .  A
C421        O422   1.262       .  A
C421       C1233   1.482       .  S
O422       Cr438   1.997       .  S
O423       Cr438   2.024       .  S
O423        C424   1.268       .  A
C424        O425   1.259       .  A
C424       C1785   1.486       .  S
O425       Cr439   1.974       .  S
O426       Cr439   2.011       .  S
O426        C427   1.268       .  A
C427       C1257   1.475       .  S
O428       Cr437   2.003       .  S
O428        C436   1.264       .  A
O429       Cr437   1.968       .  S
O429        C430   1.262       .  A
C430        O431   1.272       .  A
C430       C1292   1.485       .  S
O431       Cr438   2.028       .  S
O432       Cr438   1.973       .  S
O432        C433   1.261       .  A
C433        O434   1.268       .  A
C433       C1388   1.483       .  S
O434       Cr439   2.011       .  S
O435       Cr439   1.997       .  S
O435        C436   1.263       .  A
C436       C1305   1.492       .  S
Cr437       O440   1.764       .  S
Cr438       O440   1.778       .  S
Cr439       O440   1.773       .  S
O441       Cr459   2.021       .  S
O441        C449   1.270       .  A
O442       Cr459   1.968       .  S
O442        C443   1.256       .  A
C443        O444   1.268       .  A
C443       C1857   1.486       .  S
O444       Cr460   2.030       .  S
O445       Cr460   2.004       .  S
O445        C446   1.264       .  A
C446        O447   1.262       .  A
C446       C1209   1.478       .  S
O447       Cr461   1.993       .  S
O448       Cr461   1.962       .  S
O448        C449   1.259       .  A
C449       C1185   1.476       .  S
O450       Cr459   1.983       .  S
O450        C458   1.258       .  A
O451       Cr459   2.018       .  S
O451        C452   1.270       .  A
C452        O453   1.262       .  A
C452       C1172   1.485       .  S
O453       Cr460   1.970       .  S
O454       Cr460   2.031       .  S
O454        C455   1.274       .  A
C455        O456   1.263       .  A
C455       C1580   1.486       .  S
O456       Cr461   1.971       .  S
O457       Cr461   2.003       .  S
O457        C458   1.263       .  A
C458       C1329   1.484       .  S
Cr459       O462   1.773       .  S
Cr460       O462   1.777       .  S
Cr461       O462   1.764       .  S
O463       Cr481   1.972       .  S
O463        C471   1.261       .  A
O464       Cr481   2.009       .  S
O464        C465   1.265       .  A
C465        O466   1.263       .  A
C465       C1148   1.477       .  S
O466       Cr482   1.997       .  S
O467       Cr482   2.026       .  S
O467        C468   1.268       .  A
C468        O469   1.256       .  A
C468       C1916   1.481       .  S
O469       Cr483   1.962       .  S
O470       Cr483   2.007       .  S
O470        C471   1.266       .  A
C471       C1113   1.476       .  S
O472       Cr481   2.008       .  S
O472        C480   1.266       .  A
O473       Cr481   1.970       .  S
O473        C474   1.261       .  A
C474        O475   1.272       .  A
C474       C1532   1.486       .  S
O475       Cr482   2.028       .  S
O476       Cr482   1.979       .  S
O476        C477   1.263       .  A
C477        O478   1.267       .  A
C477       C1161   1.485       .  S
O478       Cr483   2.010       .  S
O479       Cr483   1.976       .  S
O479        C480   1.259       .  A
C480       C1281   1.482       .  S
Cr481       O484   1.763       .  S
Cr482       O484   1.771       .  S
Cr483       O484   1.769       .  S
O485       Cr503   2.020       .  S
O485        C493   1.271       .  A
O486       Cr503   1.968       .  S
O486        C487   1.256       .  A
C487        O488   1.267       .  A
C487       C1665   1.485       .  S
O488       Cr504   2.028       .  S
O489       Cr504   1.993       .  S
O489        C490   1.262       .  A
C490        O491   1.264       .  A
C490       C1076   1.475       .  S
O491       Cr505   2.007       .  S
O492       Cr505   1.968       .  S
O492        C493   1.260       .  A
C493       C1100   1.482       .  S
O494       Cr503   1.976       .  S
O494        C502   1.258       .  A
O495       Cr503   2.020       .  S
O495        C496   1.271       .  A
C496        O497   1.262       .  A
C496       C1052   1.485       .  S
O497       Cr504   1.969       .  S
O498       Cr504   2.030       .  S
O498        C499   1.272       .  A
C499        O500   1.262       .  A
C499       C1353   1.486       .  S
O500       Cr505   1.976       .  S
O501       Cr505   2.009       .  S
O501        C502   1.265       .  A
C502       C1556   1.483       .  S
Cr503       O506   1.768       .  S
Cr504       O506   1.770       .  S
Cr505       O506   1.765       .  S
O507       Cr525   1.998       .  S
O507        C515   1.265       .  A
O508       Cr525   1.977       .  S
O508        C509   1.262       .  A
C509        O510   1.268       .  A
C509        C993   1.486       .  S
O510       Cr526   2.021       .  S
O511       Cr526   2.014       .  S
O511        C512   1.265       .  A
C512        O513   1.261       .  A
C512       C1700   1.486       .  S
O513       Cr527   1.994       .  S
O514       Cr527   1.995       .  S
O514        C515   1.263       .  A
C515       C1028   1.473       .  S
O516       Cr525   1.987       .  S
O516        C524   1.262       .  A
O517       Cr525   1.996       .  S
O517        C518   1.264       .  A
C518        O519   1.265       .  A
C518       C1316   1.493       .  S
O519       Cr526   2.005       .  S
O520       Cr526   2.019       .  S
O520        C521   1.272       .  A
C521        O522   1.263       .  A
C521       C1041   1.484       .  S
O522       Cr527   1.974       .  S
O523       Cr527   2.002       .  S
O523        C524   1.264       .  A
C524       C1497   1.483       .  S
Cr525       O528   1.766       .  S
Cr526       O528   1.776       .  S
Cr527       O528   1.771       .  S
O529       Cr547   1.965       .  S
O529        C537   1.261       .  A
O530       Cr547   2.006       .  S
O530        C531   1.264       .  A
C531        O532   1.264       .  A
C531       C1137   1.481       .  S
O532       Cr548   2.002       .  S
O533       Cr548   2.027       .  S
O533        C534   1.268       .  A
C534        O535   1.257       .  A
C534       C2420   1.490       .  S
O535       Cr549   1.971       .  S
O536       Cr549   2.015       .  S
O536        C537   1.270       .  A
C537       C1460   1.478       .  S
O538       Cr547   2.005       .  S
O538        C546   1.264       .  A
O539       Cr547   1.973       .  S
O539        C540   1.262       .  A
C540        O541   1.272       .  A
C540        C932   1.483       .  S
O541       Cr548   2.029       .  S
O542       Cr548   1.973       .  S
O542        C543   1.262       .  A
C543        O544   1.270       .  A
C543        C980   1.484       .  S
O544       Cr549   2.016       .  S
O545       Cr549   1.990       .  S
O545        C546   1.260       .  A
C546        C945   1.490       .  S
Cr547       O550   1.765       .  S
Cr548       O550   1.774       .  S
Cr549       O550   1.771       .  S
O551       Cr569   2.021       .  S
O551        C559   1.270       .  A
O552       Cr569   1.960       .  S
O552        C553   1.257       .  A
C553        O554   1.271       .  A
C553       C2313   1.490       .  S
O554       Cr570   2.040       .  S
O555       Cr570   1.999       .  S
O555        C556   1.263       .  A
C556        O557   1.264       .  A
C556       C1220   1.488       .  S
O557       Cr571   2.002       .  S
O558       Cr571   1.962       .  S
O558        C559   1.259       .  A
C559       C1641   1.476       .  S
O560       Cr569   1.980       .  S
O560        C568   1.259       .  A
O561       Cr569   2.017       .  S
O561        C562   1.269       .  A
C562        O563   1.262       .  A
C562        C969   1.487       .  S
O563       Cr570   1.974       .  S
O564       Cr570   2.046       .  S
O564        C565   1.275       .  A
C565        O566   1.259       .  A
C565        C873   1.489       .  S
O566       Cr571   1.960       .  S
O567       Cr571   2.003       .  S
O567        C568   1.264       .  A
C568        C897   1.481       .  S
Cr569       O572   1.770       .  S
Cr570       O572   1.775       .  S
Cr571       O572   1.760       .  S
O573       Cr591   1.973       .  S
O573        C581   1.261       .  A
O574       Cr591   1.998       .  S
O574        C575   1.264       .  A
C575        O576   1.264       .  A
C575       C1244   1.481       .  S
O576       Cr592   2.003       .  S
O577       Cr592   2.029       .  S
O577        C578   1.268       .  A
C578        O579   1.258       .  A
C578       C2636   1.486       .  S
O579       Cr593   1.971       .  S
O580       Cr593   2.007       .  S
O580        C581   1.267       .  A
C581       C1124   1.474       .  S
O582       Cr591   2.002       .  S
O582        C590   1.264       .  A
O583       Cr591   1.973       .  S
O583        C584   1.262       .  A
C584        O585   1.272       .  A
C584        C825   1.485       .  S
O585       Cr592   2.030       .  S
O586       Cr592   1.975       .  S
O586        C587   1.262       .  A
C587        O588   1.267       .  A
C587        C849   1.482       .  S
O588       Cr593   2.008       .  S
O589       Cr593   1.985       .  S
O589        C590   1.260       .  A
C590        C921   1.483       .  S
Cr591       O594   1.763       .  S
Cr592       O594   1.775       .  S
Cr593       O594   1.771       .  S
O595       Cr613   2.017       .  S
O595        C603   1.271       .  A
O596       Cr613   1.966       .  S
O596        C597   1.255       .  A
C597        O598   1.268       .  A
C597       C2540   1.490       .  S
O598       Cr614   2.033       .  S
O599       Cr614   1.996       .  S
O599        C600   1.262       .  A
C600        O601   1.263       .  A
C600       C1412   1.475       .  S
O601       Cr615   2.002       .  S
O602       Cr615   1.963       .  S
O602        C603   1.261       .  A
C603       C1196   1.479       .  S
O604       Cr613   1.980       .  S
O604        C612   1.258       .  A
O605       Cr613   2.017       .  S
O605        C606   1.270       .  A
C606        O607   1.261       .  A
C606        C860   1.481       .  S
O607       Cr614   1.963       .  S
O608       Cr614   2.034       .  S
O608        C609   1.275       .  A
C609        O610   1.264       .  A
C609        C801   1.488       .  S
O610       Cr615   1.975       .  S
O611       Cr615   2.011       .  S
O611        C612   1.264       .  A
C612        C884   1.487       .  S
Cr613       O616   1.770       .  S
Cr614       O616   1.774       .  S
Cr615       O616   1.768       .  S
O617       Cr635   1.970       .  S
O617        C625   1.261       .  A
O618       Cr635   1.993       .  S
O618        C619   1.262       .  A
C619        O620   1.266       .  A
C619       C1004   1.488       .  S
O620       Cr636   2.010       .  S
O621       Cr636   2.019       .  S
O621        C622   1.266       .  A
C622        O623   1.258       .  A
C622       C2876   1.487       .  S
O623       Cr637   1.973       .  S
O624       Cr637   2.008       .  S
O624        C625   1.268       .  A
C625       C1268   1.477       .  S
O626       Cr635   2.003       .  S
O626        C634   1.263       .  A
O627       Cr635   1.976       .  S
O627        C628   1.263       .  A
C628        O629   1.271       .  A
C628        C753   1.483       .  S
O629       Cr636   2.019       .  S
O630       Cr636   1.977       .  S
O630        C631   1.263       .  A
C631        O632   1.268       .  A
C631        C788   1.485       .  S
O632       Cr637   2.011       .  S
O633       Cr637   1.986       .  S
O633        C634   1.260       .  A
C634        C836   1.486       .  S
Cr635       O638   1.768       .  S
Cr636       O638   1.775       .  S
Cr637       O638   1.773       .  S
O639       Cr657   2.007       .  S
O639        C647   1.267       .  A
O640       Cr657   1.969       .  S
O640        C641   1.258       .  A
C641        O642   1.270       .  A
C641       C2756   1.486       .  S
O642       Cr658   2.031       .  S
O643       Cr658   1.992       .  S
O643        C644   1.261       .  A
C644        O645   1.264       .  A
C644       C1065   1.478       .  S
O645       Cr659   2.008       .  S
O646       Cr659   1.975       .  S
O646        C647   1.262       .  A
C647       C1436   1.477       .  S
O648       Cr657   1.987       .  S
O648        C656   1.261       .  A
O649       Cr657   2.009       .  S
O649        C650   1.267       .  A
C650        O651   1.262       .  A
C650        C777   1.482       .  S
O651       Cr658   1.976       .  S
O652       Cr658   2.039       .  S
O652        C653   1.273       .  A
C653        O654   1.259       .  A
C653        C729   1.484       .  S
O654       Cr659   1.962       .  S
O655       Cr659   2.004       .  S
O655        C656   1.266       .  A
C656        C812   1.484       .  S
Cr657       O660   1.768       .  S
Cr658       O660   1.771       .  S
Cr659       O660   1.762       .  S
O661       Cr679   1.970       .  S
O661        C669   1.259       .  A
O662       Cr679   1.996       .  S
O662        C663   1.261       .  A
C663        O664   1.261       .  A
C663       C1484   1.471       .  S
O664       Cr680   1.995       .  S
O665       Cr680   2.037       .  S
O665        C666   1.271       .  A
C666        O667   1.257       .  A
C666       C2228   1.486       .  S
O667       Cr681   1.961       .  S
O668       Cr681   2.023       .  S
O668        C669   1.268       .  A
C669       C1017   1.479       .  S
O670       Cr679   2.010       .  S
O670        C678   1.265       .  A
O671       Cr679   1.971       .  S
O671        C672   1.263       .  A
C672        O673   1.274       .  A
C672        C956   1.490       .  S
O673       Cr680   2.036       .  S
O674       Cr680   1.982       .  S
O674        C675   1.262       .  A
C675        O676   1.269       .  A
C675        C705   1.491       .  S
O676       Cr681   2.017       .  S
O677       Cr681   1.978       .  S
O677        C678   1.259       .  A
C678        C764   1.483       .  S
Cr679       O682   1.766       .  S
Cr680       O682   1.777       .  S
Cr681       O682   1.772       .  S
O683       Cr701   2.033       .  S
O683        C691   1.272       .  A
O684       Cr701   1.961       .  S
O684        C685   1.255       .  A
C685        O686   1.267       .  A
C685       C2145   1.485       .  S
O686       Cr702   2.028       .  S
O687       Cr702   1.992       .  S
O687        C688   1.262       .  A
C688        O689   1.267       .  A
C688       C1628   1.488       .  S
O689       Cr703   2.011       .  S
O690       Cr703   1.957       .  S
O690        C691   1.259       .  A
C691       C1089   1.481       .  S
O692       Cr701   1.977       .  S
O692        C700   1.257       .  A
O693       Cr701   2.031       .  S
O693        C694   1.273       .  A
C694        O695   1.261       .  A
C694        C716   1.492       .  S
O695       Cr702   1.967       .  S
O696       Cr702   2.027       .  S
O696        C697   1.271       .  A
C697        O698   1.261       .  A
C697        C908   1.481       .  S
O698       Cr703   1.967       .  S
O699       Cr703   2.011       .  S
O699        C700   1.265       .  A
C700        C740   1.485       .  S
Cr701       O704   1.772       .  S
Cr702       O704   1.778       .  S
Cr703       O704   1.763       .  S
C705        C706   1.406       .  A
C705        C710   1.407       .  A
C706        C707   1.402       .  A
C706        H719   1.083       .  S
C707        C708   1.406       .  A
C707        H720   1.084       .  S
C708        C709   1.411       .  A
C708        C711   1.500       .  S
C709        C710   1.403       .  A
C709        H721   1.080       .  S
C710        H722   1.083       .  S
C711        C712   1.352   1_554  D
C711        H723   1.085       .  S
C712        C713   1.498       .  S
C712        H724   1.084   1_556  S
C713        C714   1.404       .  A
C713        C718   1.412       .  A
C714        C715   1.397       .  A
C714        H725   1.084       .  S
C715        C716   1.408       .  A
C715        H726   1.083       .  S
C716        C717   1.407       .  A
C717        C718   1.407       .  A
C717        H727   1.083       .  S
C718        H728   1.080       .  S
C729        C730   1.406       .  A
C729        C734   1.406   1_565  A
C730        C731   1.394   1_565  A
C730        H743   1.083       .  S
C731        C732   1.402       .  A
C731        H744   1.084   1_545  S
C732        C733   1.411       .  A
C732        C735   1.491       .  S
C733        C734   1.406       .  A
C733        H745   1.081       .  S
C734        H746   1.083       .  S
C735        C736   1.347       .  D
C735        H747   1.086       .  S
C736        C737   1.491       .  S
C736        H748   1.085       .  S
C737        C738   1.404       .  A
C737        C742   1.409       .  A
C738        C739   1.403       .  A
C738        H749   1.083       .  S
C739        C740   1.408       .  A
C739        H750   1.083       .  S
C740        C741   1.404       .  A
C741        C742   1.398       .  A
C741        H751   1.083       .  S
C742        H752   1.082       .  S
C753        C754   1.406   1_565  A
C753        C758   1.406       .  A
C754        C755   1.399       .  A
C754        H767   1.083       .  S
C755        C756   1.404       .  A
C755        H768   1.083       .  S
C756        C757   1.408       .  A
C756        C759   1.489       .  S
C757        C758   1.399   1_545  A
C757        H769   1.082       .  S
C758        H770   1.083       .  S
C759        C760   1.349       .  D
C759        H771   1.083       .  S
C760        C761   1.490       .  S
C760        H772   1.085       .  S
C761        C762   1.404       .  A
C761        C766   1.409       .  A
C762        C763   1.397       .  A
C762        H773   1.083       .  S
C763        C764   1.405       .  A
C763        H774   1.083       .  S
C764        C765   1.406       .  A
C765        C766   1.401       .  A
C765        H775   1.083       .  S
C766        H776   1.080       .  S
C777        C778   1.406       .  A
C777        C782   1.405       .  A
C778        C779   1.400       .  A
C778        H791   1.083       .  S
C779        C780   1.404       .  A
C779        H792   1.083       .  S
C780        C781   1.409       .  A
C780        C783   1.490       .  S
C781        C782   1.397       .  A
C781        H793   1.081       .  S
C782        H794   1.083       .  S
C783        C784   1.349   1_556  D
C783        H795   1.084       .  S
C784        C785   1.489       .  S
C784        H796   1.085   1_554  S
C785        C786   1.403       .  A
C785        C790   1.409       .  A
C786        C787   1.396       .  A
C786        H797   1.084       .  S
C787        C788   1.405       .  A
C787        H798   1.083       .  S
C788        C789   1.407       .  A
C789        C790   1.402       .  A
C789        H799   1.083       .  S
C790        H800   1.081       .  S
C801        C802   1.406   1_655  A
C801        C806   1.407       .  A
C802        C803   1.402       .  A
C802        H815   1.083       .  S
C803        C804   1.405       .  A
C803        H816   1.084       .  S
C804        C805   1.409       .  A
C804        C807   1.496       .  S
C805        C806   1.400   1_455  A
C805        H817   1.081       .  S
C806        H818   1.083       .  S
C807        C808   1.350       .  D
C807        H819   1.086       .  S
C808        C809   1.490       .  S
C808        H820   1.084       .  S
C809        C810   1.403       .  A
C809        C814   1.410       .  A
C810        C811   1.395       .  A
C810        H821   1.084       .  S
C811        C812   1.405       .  A
C811        H822   1.083       .  S
C812        C813   1.407       .  A
C813        C814   1.406       .  A
C813        H823   1.083       .  S
C814        H824   1.082       .  S
C825        C826   1.405       .  A
C825        C830   1.407   1_655  A
C826        C827   1.398   1_655  A
C826        H839   1.083       .  S
C827        C828   1.404       .  A
C827        H840   1.084       .  S
C828        C829   1.409       .  A
C828        C831   1.491       .  S
C829        C830   1.403       .  A
C829        H841   1.081       .  S
C830        H842   1.083       .  S
C831        C832   1.348       .  D
C831        H843   1.086       .  S
C832        C833   1.491       .  S
C832        H844   1.085       .  S
C833        C834   1.405       .  A
C833        C838   1.408       .  A
C834        C835   1.402       .  A
C834        H845   1.083       .  S
C835        C836   1.406       .  A
C835        H846   1.083       .  S
C836        C837   1.407       .  A
C837        C838   1.399       .  A
C837        H847   1.083       .  S
C838        H848   1.082       .  S
C849        C850   1.407       .  A
C849        C854   1.405       .  A
C850        C851   1.400       .  A
C850        H863   1.083       .  S
C851        C852   1.403       .  A
C851        H864   1.084       .  S
C852        C853   1.408       .  A
C852        C855   1.486       .  S
C853        C854   1.397       .  A
C853        H865   1.081       .  S
C854        H866   1.083       .  S
C855        C856   1.347   1_554  D
C855        H867   1.084   1_554  S
C856        C857   1.487       .  S
C856        H868   1.086       .  S
C857        C858   1.402       .  A
C857        C862   1.410       .  A
C858        C859   1.394       .  A
C858        H869   1.084       .  S
C859        C860   1.405       .  A
C859        H870   1.083       .  S
C860        C861   1.405       .  A
C861        C862   1.402       .  A
C861        H871   1.083       .  S
C862        H872   1.080       .  S
C873        C874   1.407       .  A
C873        C878   1.407   1_545  A
C874        C875   1.395   1_545  A
C874        H887   1.083       .  S
C875        C876   1.402       .  A
C875        H888   1.084       .  S
C876        C877   1.412       .  A
C876        C879   1.493       .  S
C877        C878   1.407       .  A
C877        H889   1.081       .  S
C878        H890   1.083       .  S
C879        C880   1.348       .  D
C879        H891   1.085       .  S
C880        C881   1.494       .  S
C880        H892   1.084       .  S
C881        C882   1.404       .  A
C881        C886   1.409       .  A
C882        C883   1.402       .  A
C882        H893   1.083       .  S
C883        C884   1.407       .  A
C883        H894   1.083       .  S
C884        C885   1.406       .  A
C885        C886   1.400       .  A
C885        H895   1.083       .  S
C886        H896   1.082       .  S
C897        C898   1.406       .  A
C897        C902   1.404       .  A
C898        C899   1.402       .  A
C898        H911   1.083       .  S
C899        C900   1.404       .  A
C899        H912   1.083       .  S
C900        C901   1.407       .  A
C900        C903   1.488       .  S
C901        C902   1.395       .  A
C901        H913   1.082       .  S
C902        H914   1.083       .  S
C903        C904   1.347       .  D
C903        H915   1.085       .  S
C904        C905   1.487       .  S
C904        H916   1.086       .  S
C905        C906   1.403       .  A
C905        C910   1.410       .  A
C906        C907   1.395   1_655  A
C906        H917   1.084       .  S
C907        C908   1.404       .  A
C907        H918   1.083       .  S
C908        C909   1.406   1_455  A
C909        C910   1.402       .  A
C909        H919   1.083       .  S
C910        H920   1.081       .  S
C921        C922   1.406       .  A
C921        C926   1.405       .  A
C922        C923   1.403       .  A
C922        H935   1.083       .  S
C923        C924   1.406       .  A
C923        H936   1.083       .  S
C924        C925   1.408       .  A
C924        C927   1.491       .  S
C925        C926   1.396       .  A
C925        H937   1.081       .  S
C926        H938   1.083       .  S
C927        C928   1.349       .  D
C927        H939   1.085       .  S
C928        C929   1.490       .  S
C928        H940   1.086       .  S
C929        C930   1.404       .  A
C929        C934   1.410       .  A
C930        C931   1.397   1_565  A
C930        H941   1.084       .  S
C931        C932   1.405       .  A
C931        H942   1.083       .  S
C932        C933   1.406   1_545  A
C933        C934   1.402       .  A
C933        H943   1.083       .  S
C934        H944   1.081       .  S
C945        C946   1.408       .  A
C945        C950   1.407       .  A
C946        C947   1.406       .  A
C946        H959   1.083       .  S
C947        C948   1.407       .  A
C947        H960   1.083       .  S
C948        C949   1.407       .  A
C948        C951   1.496       .  S
C949        C950   1.397       .  A
C949        H961   1.082       .  S
C950        H962   1.083       .  S
C951        C952   1.351       .  D
C951        H963   1.085       .  S
C952        C953   1.494       .  S
C952        H964   1.086       .  S
C953        C954   1.404       .  A
C953        C958   1.410       .  A
C954        C955   1.397   1_655  A
C954        H965   1.084       .  S
C955        C956   1.406       .  A
C955        H966   1.083       .  S
C956        C957   1.408   1_455  A
C957        C958   1.407       .  A
C957        H967   1.083       .  S
C958        H968   1.081       .  S
C969        C970   1.405       .  A
C969        C974   1.406       .  A
C970        C971   1.397       .  A
C970        H983   1.083       .  S
C971        C972   1.404       .  A
C971        H984   1.084       .  S
C972        C973   1.411       .  A
C972        C975   1.494       .  S
C973        C974   1.403       .  A
C973        H985   1.079       .  S
C974        H986   1.083       .  S
C975        C976   1.350   1_556  D
C975        H987   1.084   1_556  S
C976        C977   1.493       .  S
C976        H988   1.083       .  S
C977        C978   1.405       .  A
C977        C982   1.409       .  A
C978        C979   1.401       .  A
C978        H989   1.083       .  S
C979        C980   1.405       .  A
C979        H990   1.083       .  S
C980        C981   1.406       .  A
C981        C982   1.398       .  A
C981        H991   1.083       .  S
C982        H992   1.080       .  S
C993        C994   1.403       .  A
C993        C998   1.408       .  A
C994        C995   1.396       .  A
C994       H1007   1.083       .  S
C995        C996   1.405       .  A
C995       H1008   1.083       .  S
C996        C997   1.409       .  A
C996        C999   1.493       .  S
C997        C998   1.406       .  A
C997       H1009   1.081   1_545  S
C998       H1010   1.083       .  S
C999       C1000   1.351   1_545  D
C999       H1011   1.087       .  S
C1000      C1001   1.493       .  S
C1000      H1012   1.084       .  S
C1001      C1002   1.408       .  A
C1001      C1006   1.404       .  A
C1002      C1003   1.410       .  A
C1002      H1013   1.083       .  S
C1003      C1004   1.407       .  A
C1003      H1014   1.083       .  S
C1004      C1005   1.407       .  A
C1005      C1006   1.392       .  A
C1005      H1015   1.083       .  S
C1006      H1016   1.083       .  S
C1017      C1018   1.403       .  A
C1017      C1022   1.405       .  A
C1018      C1019   1.395       .  A
C1018      H1031   1.083       .  S
C1019      C1020   1.404       .  A
C1019      H1032   1.083       .  S
C1020      C1021   1.411       .  A
C1020      C1023   1.490       .  S
C1021      C1022   1.403       .  A
C1021      H1033   1.080       .  S
C1022      H1034   1.083       .  S
C1023      C1024   1.348       .  D
C1023      H1035   1.086       .  S
C1024      C1025   1.489       .  S
C1024      H1036   1.083       .  S
C1025      C1026   1.407       .  A
C1025      C1030   1.407       .  A
C1026      C1027   1.405       .  A
C1026      H1037   1.083       .  S
C1027      C1028   1.403       .  A
C1027      H1038   1.083       .  S
C1028      C1029   1.402       .  A
C1029      C1030   1.392       .  A
C1029      H1039   1.084       .  S
C1030      H1040   1.082       .  S
C1041      C1042   1.405       .  A
C1041      C1046   1.407       .  A
C1042      C1043   1.398       .  A
C1042      H1055   1.083       .  S
C1043      C1044   1.404       .  A
C1043      H1056   1.084       .  S
C1044      C1045   1.408       .  A
C1044      C1047   1.488       .  S
C1045      C1046   1.400       .  A
C1045      H1057   1.081       .  S
C1046      H1058   1.083       .  S
C1047      C1048   1.349       .  D
C1047      H1059   1.085       .  S
C1048      C1049   1.490       .  S
C1048      H1060   1.085       .  S
C1049      C1050   1.405       .  A
C1049      C1054   1.407       .  A
C1050      C1051   1.401       .  A
C1050      H1061   1.084       .  S
C1051      C1052   1.406       .  A
C1051      H1062   1.083       .  S
C1052      C1053   1.407       .  A
C1053      C1054   1.397       .  A
C1053      H1063   1.083       .  S
C1054      H1064   1.081       .  S
C1065      C1066   1.404       .  A
C1065      C1070   1.404       .  A
C1066      C1067   1.403       .  A
C1066      H1079   1.083       .  S
C1067      C1068   1.405       .  A
C1067      H1080   1.083       .  S
C1068      C1069   1.406       .  A
C1068      C1071   1.486       .  S
C1069      C1070   1.398       .  A
C1069      H1081   1.083       .  S
C1070      H1082   1.083       .  S
C1071      C1072   1.347       .  D
C1071      H1083   1.086       .  S
C1072      C1073   1.486   1_565  S
C1072      H1084   1.087   1_565  S
C1073      C1074   1.406       .  A
C1073      C1078   1.406   1_545  A
C1074      C1075   1.402       .  A
C1074      H1085   1.083       .  S
C1075      C1076   1.403       .  A
C1075      H1086   1.083       .  S
C1076      C1077   1.404       .  A
C1077      C1078   1.397   1_545  A
C1077      H1087   1.084   1_545  S
C1078      H1088   1.082       .  S
C1089      C1090   1.405       .  A
C1089      C1094   1.406       .  A
C1090      C1091   1.392       .  A
C1090      H1103   1.083       .  S
C1091      C1092   1.400       .  A
C1091      H1104   1.083       .  S
C1092      C1093   1.410       .  A
C1092      C1095   1.486       .  S
C1093      C1094   1.405       .  A
C1093      H1105   1.082       .  S
C1094      H1106   1.083       .  S
C1095      C1096   1.346       .  D
C1095      H1107   1.085       .  S
C1096      C1097   1.488       .  S
C1096      H1108   1.085       .  S
C1097      C1098   1.402       .  A
C1097      C1102   1.410       .  A
C1098      C1099   1.397       .  A
C1098      H1109   1.083       .  S
C1099      C1100   1.407       .  A
C1099      H1110   1.083       .  S
C1100      C1101   1.405       .  A
C1101      C1102   1.400       .  A
C1101      H1111   1.083       .  S
C1102      H1112   1.082       .  S
C1113      C1114   1.406       .  A
C1113      C1118   1.403       .  A
C1114      C1115   1.397       .  A
C1114      H1127   1.083       .  S
C1115      C1116   1.402       .  A
C1115      H1128   1.084       .  S
C1116      C1117   1.407       .  A
C1116      C1119   1.482       .  S
C1117      C1118   1.394       .  A
C1117      H1129   1.081       .  S
C1118      H1130   1.083       .  S
C1119      C1120   1.345       .  D
C1119      H1131   1.085       .  S
C1120      C1121   1.481       .  S
C1120      H1132   1.085       .  S
C1121      C1122   1.402       .  A
C1121      C1126   1.408       .  A
C1122      C1123   1.395       .  A
C1122      H1133   1.083       .  S
C1123      C1124   1.404       .  A
C1123      H1134   1.083       .  S
C1124      C1125   1.404       .  A
C1125      C1126   1.397       .  A
C1125      H1135   1.083       .  S
C1126      H1136   1.081       .  S
C1137      C1138   1.405       .  A
C1137      C1142   1.405       .  A
C1138      C1139   1.396   1_545  A
C1138      H1151   1.083       .  S
C1139      C1140   1.401   1_565  A
C1139      H1152   1.084       .  S
C1140      C1141   1.410       .  A
C1140      C1143   1.488   1_545  S
C1141      C1142   1.407       .  A
C1141      H1153   1.082       .  S
C1142      H1154   1.083       .  S
C1143      C1144   1.346   1_565  D
C1143      H1155   1.087       .  S
C1144      C1145   1.489   1_545  S
C1144      H1156   1.087       .  S
C1145      C1146   1.402       .  A
C1145      C1150   1.410       .  A
C1146      C1147   1.398       .  A
C1146      H1157   1.084   1_565  S
C1147      C1148   1.404       .  A
C1147      H1158   1.083       .  S
C1148      C1149   1.404       .  A
C1149      C1150   1.405       .  A
C1149      H1159   1.083       .  S
C1150      H1160   1.082       .  S
C1161      C1162   1.407       .  A
C1161      C1166   1.405       .  A
C1162      C1163   1.401       .  A
C1162      H1175   1.083       .  S
C1163      C1164   1.404       .  A
C1163      H1176   1.084       .  S
C1164      C1165   1.410       .  A
C1164      C1167   1.492       .  S
C1165      C1166   1.398       .  A
C1165      H1177   1.080       .  S
C1166      H1178   1.083       .  S
C1167      C1168   1.348       .  D
C1167      H1179   1.085       .  S
C1168      C1169   1.489       .  S
C1168      H1180   1.084       .  S
C1169      C1170   1.402       .  A
C1169      C1174   1.410       .  A
C1170      C1171   1.394       .  A
C1170      H1181   1.084       .  S
C1171      C1172   1.405       .  A
C1171      H1182   1.083       .  S
C1172      C1173   1.408       .  A
C1173      C1174   1.404       .  A
C1173      H1183   1.083       .  S
C1174      H1184   1.081       .  S
C1185      C1186   1.405       .  A
C1185      C1190   1.404       .  A
C1186      C1187   1.393       .  A
C1186      H1199   1.083       .  S
C1187      C1188   1.401       .  A
C1187      H1200   1.084       .  S
C1188      C1189   1.409       .  A
C1188      C1191   1.481       .  S
C1189      C1190   1.400       .  A
C1189      H1201   1.082       .  S
C1190      H1202   1.083       .  S
C1191      C1192   1.345       .  D
C1191      H1203   1.085       .  S
C1192      C1193   1.484       .  S
C1192      H1204   1.086       .  S
C1193      C1194   1.401       .  A
C1193      C1198   1.409       .  A
C1194      C1195   1.394       .  A
C1194      H1205   1.083       .  S
C1195      C1196   1.406       .  A
C1195      H1206   1.083       .  S
C1196      C1197   1.405       .  A
C1197      C1198   1.399       .  A
C1197      H1207   1.083       .  S
C1198      H1208   1.082       .  S
C1209      C1210   1.402       .  A
C1209      C1214   1.406       .  A
C1210      C1211   1.391       .  A
C1210      H1223   1.083       .  S
C1211      C1212   1.402       .  A
C1211      H1224   1.084       .  S
C1212      C1213   1.412       .  A
C1212      C1215   1.489       .  S
C1213      C1214   1.411       .  A
C1213      H1225   1.081       .  S
C1214      H1226   1.083       .  S
C1215      C1216   1.349       .  D
C1215      H1227   1.087       .  S
C1216      C1217   1.494   1_565  S
C1216      H1228   1.085   1_565  S
C1217      C1218   1.407       .  A
C1217      C1222   1.406       .  A
C1218      C1219   1.408       .  A
C1218      H1229   1.083       .  S
C1219      C1220   1.408       .  A
C1219      H1230   1.083       .  S
C1220      C1221   1.406       .  A
C1221      C1222   1.393       .  A
C1221      H1231   1.083       .  S
C1222      H1232   1.082   1_545  S
C1233      C1234   1.406       .  A
C1233      C1238   1.404       .  A
C1234      C1235   1.407       .  A
C1234      H1247   1.083       .  S
C1235      C1236   1.407       .  A
C1235      H1248   1.083       .  S
C1236      C1237   1.407       .  A
C1236      C1239   1.493       .  S
C1237      C1238   1.394       .  A
C1237      H1249   1.082       .  S
C1238      H1250   1.084       .  S
C1239      C1240   1.349       .  D
C1239      H1251   1.084   1_455  S
C1240      C1241   1.491   1_455  S
C1240      H1252   1.086       .  S
C1241      C1242   1.402   1_655  A
C1241      C1246   1.412       .  A
C1242      C1243   1.392   1_455  A
C1242      H1253   1.084       .  S
C1243      C1244   1.403       .  A
C1243      H1254   1.084       .  S
C1244      C1245   1.406       .  A
C1245      C1246   1.409       .  A
C1245      H1255   1.083       .  S
C1246      H1256   1.081       .  S
C1257      C1258   1.405       .  A
C1257      C1262   1.404       .  A
C1258      C1259   1.397       .  A
C1258      H1271   1.083       .  S
C1259      C1260   1.403       .  A
C1259      H1272   1.083       .  S
C1260      C1261   1.408       .  A
C1260      C1263   1.482       .  S
C1261      C1262   1.394       .  A
C1261      H1273   1.081       .  S
C1262      H1274   1.083       .  S
C1263      C1264   1.344       .  D
C1263      H1275   1.086       .  S
C1264      C1265   1.481       .  S
C1264      H1276   1.085       .  S
C1265      C1266   1.402       .  A
C1265      C1270   1.408       .  A
C1266      C1267   1.397       .  A
C1266      H1277   1.083       .  S
C1267      C1268   1.405       .  A
C1267      H1278   1.083       .  S
C1268      C1269   1.404       .  A
C1269      C1270   1.395       .  A
C1269      H1279   1.083       .  S
C1270      H1280   1.082       .  S
C1281      C1282   1.407       .  A
C1281      C1286   1.404       .  A
C1282      C1283   1.402       .  A
C1282      H1295   1.083       .  S
C1283      C1284   1.404       .  A
C1283      H1296   1.083       .  S
C1284      C1285   1.408       .  A
C1284      C1287   1.489       .  S
C1285      C1286   1.395       .  A
C1285      H1297   1.081       .  S
C1286      H1298   1.083       .  S
C1287      C1288   1.348       .  D
C1287      H1299   1.084       .  S
C1288      C1289   1.491       .  S
C1288      H1300   1.086       .  S
C1289      C1290   1.403       .  A
C1289      C1294   1.410       .  A
C1290      C1291   1.395   1_655  A
C1290      H1301   1.084       .  S
C1291      C1292   1.405       .  A
C1291      H1302   1.083       .  S
C1292      C1293   1.407   1_455  A
C1293      C1294   1.404       .  A
C1293      H1303   1.083       .  S
C1294      H1304   1.080       .  S
C1305      C1306   1.408       .  A
C1305      C1310   1.406       .  A
C1306      C1307   1.409       .  A
C1306      H1319   1.083       .  S
C1307      C1308   1.408       .  A
C1307      H1320   1.083       .  S
C1308      C1309   1.409       .  A
C1308      C1311   1.501       .  S
C1309      C1310   1.396       .  A
C1309      H1321   1.081       .  S
C1310      H1322   1.083       .  S
C1311      C1312   1.351       .  D
C1311      H1323   1.086       .  S
C1312      C1313   1.492       .  S
C1312      H1324   1.085       .  S
C1313      C1314   1.401       .  A
C1313      C1318   1.410       .  A
C1314      C1315   1.394   1_565  A
C1314      H1325   1.084       .  S
C1315      C1316   1.407       .  A
C1315      H1326   1.083       .  S
C1316      C1317   1.410       .  A
C1317      C1318   1.412   1_545  A
C1317      H1327   1.083       .  S
C1318      H1328   1.082       .  S
C1329      C1330   1.406       .  A
C1329      C1334   1.406       .  A
C1330      C1331   1.402       .  A
C1330      H1343   1.083       .  S
C1331      C1332   1.405       .  A
C1331      H1344   1.083       .  S
C1332      C1333   1.407       .  A
C1332      C1335   1.490       .  S
C1333      C1334   1.397       .  A
C1333      H1345   1.082       .  S
C1334      H1346   1.083       .  S
C1335      C1336   1.347       .  D
C1335      H1347   1.085       .  S
C1336      C1337   1.488       .  S
C1336      H1348   1.086       .  S
C1337      C1338   1.402       .  A
C1337      C1342   1.410       .  A
C1338      C1339   1.396   1_655  A
C1338      H1349   1.084       .  S
C1339      C1340   1.406       .  A
C1339      H1350   1.083       .  S
C1340      C1341   1.406   1_455  A
C1341      C1342   1.404       .  A
C1341      H1351   1.083       .  S
C1342      H1352   1.081       .  S
C1353      C1354   1.405   1_545  A
C1353      C1358   1.406   1_545  A
C1354      C1355   1.401       .  A
C1354      H1367   1.083       .  S
C1355      C1356   1.406       .  A
C1355      H1368   1.083       .  S
C1356      C1357   1.411       .  A
C1356      C1359   1.497       .  S
C1357      C1358   1.401       .  A
C1357      H1369   1.080       .  S
C1358      H1370   1.083   1_565  S
C1359      C1360   1.350       .  D
C1359      H1371   1.086       .  S
C1360      C1361   1.491       .  S
C1360      H1372   1.084       .  S
C1361      C1362   1.402       .  A
C1361      C1366   1.411       .  A
C1362      C1363   1.394       .  A
C1362      H1373   1.084       .  S
C1363      C1364   1.405       .  A
C1363      H1374   1.083       .  S
C1364      C1365   1.406       .  A
C1365      C1366   1.407       .  A
C1365      H1375   1.083       .  S
C1366      H1376   1.081       .  S
C1377      C1378   1.405       .  A
C1377      C1382   1.406       .  A
C1378      C1379   1.398       .  A
C1378      H1391   1.083       .  S
C1379      C1380   1.404       .  A
C1379      H1392   1.083       .  S
C1380      C1381   1.409       .  A
C1380      C1383   1.490       .  S
C1381      C1382   1.399       .  A
C1381      H1393   1.080       .  S
C1382      H1394   1.083       .  S
C1383      C1384   1.349       .  D
C1383      H1395   1.083       .  S
C1384      C1385   1.491       .  S
C1384      H1396   1.084       .  S
C1385      C1386   1.404       .  A
C1385      C1390   1.409       .  A
C1386      C1387   1.398       .  A
C1386      H1397   1.084       .  S
C1387      C1388   1.406       .  A
C1387      H1398   1.083       .  S
C1388      C1389   1.405       .  A
C1389      C1390   1.399       .  A
C1389      H1399   1.083       .  S
C1390      H1400   1.080       .  S
C1401      C1402   1.408       .  A
C1401      C1406   1.405       .  A
C1402      C1403   1.408       .  A
C1402      H1415   1.083       .  S
C1403      C1404   1.406       .  A
C1403      H1416   1.083       .  S
C1404      C1405   1.404       .  A
C1404      C1407   1.487       .  S
C1405      C1406   1.389       .  A
C1405      H1417   1.083       .  S
C1406      H1418   1.083       .  S
C1407      C1408   1.348       .  D
C1407      H1419   1.084   1_455  S
C1408      C1409   1.487       .  S
C1408      H1420   1.088       .  S
C1409      C1410   1.403       .  A
C1409      C1414   1.411   1_455  A
C1410      C1411   1.392   1_455  A
C1410      H1421   1.084       .  S
C1411      C1412   1.401       .  A
C1411      H1422   1.084   1_655  S
C1412      C1413   1.404       .  A
C1413      C1414   1.406       .  A
C1413      H1423   1.083       .  S
C1414      H1424   1.081       .  S
C1425      C1426   1.405       .  A
C1425      C1430   1.404       .  A
C1426      C1427   1.398       .  A
C1426      H1439   1.083       .  S
C1427      C1428   1.402       .  A
C1427      H1440   1.083       .  S
C1428      C1429   1.407       .  A
C1428      C1431   1.482       .  S
C1429      C1430   1.394       .  A
C1429      H1441   1.081       .  S
C1430      H1442   1.083       .  S
C1431      C1432   1.344       .  D
C1431      H1443   1.086       .  S
C1432      C1433   1.481       .  S
C1432      H1444   1.086       .  S
C1433      C1434   1.402       .  A
C1433      C1438   1.408       .  A
C1434      C1435   1.396       .  A
C1434      H1445   1.083       .  S
C1435      C1436   1.406       .  A
C1435      H1446   1.083       .  S
C1436      C1437   1.404       .  A
C1437      C1438   1.397       .  A
C1437      H1447   1.083       .  S
C1438      H1448   1.082       .  S
C1449      C1450   1.406       .  A
C1449      C1454   1.403       .  A
C1450      C1451   1.394       .  A
C1450      H1463   1.083       .  S
C1451      C1452   1.400       .  A
C1451      H1464   1.084       .  S
C1452      C1453   1.408       .  A
C1452      C1455   1.480       .  S
C1453      C1454   1.398       .  A
C1453      H1465   1.082       .  S
C1454      H1466   1.083       .  S
C1455      C1456   1.345       .  D
C1455      H1467   1.086       .  S
C1456      C1457   1.481       .  S
C1456      H1468   1.086       .  S
C1457      C1458   1.402       .  A
C1457      C1462   1.407       .  A
C1458      C1459   1.393       .  A
C1458      H1469   1.084       .  S
C1459      C1460   1.405       .  A
C1459      H1470   1.083       .  S
C1460      C1461   1.406       .  A
C1461      C1462   1.399       .  A
C1461      H1471   1.083       .  S
C1462      H1472   1.082       .  S
C1473      C1474   1.405       .  A
C1473      C1478   1.406       .  A
C1474      C1475   1.407       .  A
C1474      H1487   1.083       .  S
C1475      C1476   1.407       .  A
C1475      H1488   1.083       .  S
C1476      C1477   1.404       .  A
C1476      C1479   1.488       .  S
C1477      C1478   1.394       .  A
C1477      H1489   1.083       .  S
C1478      H1490   1.083       .  S
C1479      C1480   1.348       .  D
C1479      H1491   1.086   1_655  S
C1480      C1481   1.487   1_655  S
C1480      H1492   1.087       .  S
C1481      C1482   1.405   1_455  A
C1481      C1486   1.408       .  A
C1482      C1483   1.401   1_655  A
C1482      H1493   1.083       .  S
C1483      C1484   1.401       .  A
C1483      H1494   1.083       .  S
C1484      C1485   1.403       .  A
C1485      C1486   1.402       .  A
C1485      H1495   1.083       .  S
C1486      H1496   1.082       .  S
C1497      C1498   1.407       .  A
C1497      C1502   1.405       .  A
C1498      C1499   1.396       .  A
C1498      H1511   1.083       .  S
C1499      C1500   1.402       .  A
C1499      H1512   1.084       .  S
C1500      C1501   1.410       .  A
C1500      C1503   1.489       .  S
C1501      C1502   1.401       .  A
C1501      H1513   1.081       .  S
C1502      H1514   1.083       .  S
C1503      C1504   1.347       .  D
C1503      H1515   1.085       .  S
C1504      C1505   1.487       .  S
C1504      H1516   1.084       .  S
C1505      C1506   1.402       .  A
C1505      C1510   1.409       .  A
C1506      C1507   1.397   1_455  A
C1506      H1517   1.083       .  S
C1507      C1508   1.406       .  A
C1507      H1518   1.083       .  S
C1508      C1509   1.405       .  A
C1509      C1510   1.400   1_655  A
C1509      H1519   1.083       .  S
C1510      H1520   1.081       .  S
C1521      C1522   1.406       .  A
C1521      C1526   1.407       .  A
C1522      C1523   1.395       .  A
C1522      H1535   1.083       .  S
C1523      C1524   1.402       .  A
C1523      H1536   1.084       .  S
C1524      C1525   1.409       .  A
C1524      C1527   1.489       .  S
C1525      C1526   1.405       .  A
C1525      H1537   1.082       .  S
C1526      H1538   1.083       .  S
C1527      C1528   1.349       .  D
C1527      H1539   1.086       .  S
C1528      C1529   1.491       .  S
C1528      H1540   1.086       .  S
C1529      C1530   1.404       .  A
C1529      C1534   1.407       .  A
C1530      C1531   1.402       .  A
C1530      H1541   1.083       .  S
C1531      C1532   1.406   1_545  A
C1531      H1542   1.083       .  S
C1532      C1533   1.407       .  A
C1533      C1534   1.398   1_565  A
C1533      H1543   1.083       .  S
C1534      H1544   1.082       .  S
C1545      C1546   1.406   1_655  A
C1545      C1550   1.406       .  A
C1546      C1547   1.402       .  A
C1546      H1559   1.083       .  S
C1547      C1548   1.405       .  A
C1547      H1560   1.084       .  S
C1548      C1549   1.407       .  A
C1548      C1551   1.489       .  S
C1549      C1550   1.396   1_455  A
C1549      H1561   1.082       .  S
C1550      H1562   1.083       .  S
C1551      C1552   1.349       .  D
C1551      H1563   1.085       .  S
C1552      C1553   1.487       .  S
C1552      H1564   1.086       .  S
C1553      C1554   1.404       .  A
C1553      C1558   1.408       .  A
C1554      C1555   1.396       .  A
C1554      H1565   1.084       .  S
C1555      C1556   1.405       .  A
C1555      H1566   1.083       .  S
C1556      C1557   1.407       .  A
C1557      C1558   1.402       .  A
C1557      H1567   1.083       .  S
C1558      H1568   1.081       .  S
C1569      C1570   1.406       .  A
C1569      C1574   1.406       .  A
C1570      C1571   1.396       .  A
C1570      H1583   1.083       .  S
C1571      C1572   1.403       .  A
C1571      H1584   1.084       .  S
C1572      C1573   1.410       .  A
C1572      C1575   1.492       .  S
C1573      C1574   1.405       .  A
C1573      H1585   1.081       .  S
C1574      H1586   1.083       .  S
C1575      C1576   1.350       .  D
C1575      H1587   1.084       .  S
C1576      C1577   1.494       .  S
C1576      H1588   1.084       .  S
C1577      C1578   1.406       .  A
C1577      C1582   1.408       .  A
C1578      C1579   1.402       .  A
C1578      H1589   1.083       .  S
C1579      C1580   1.406   1_545  A
C1579      H1590   1.083   1_545  S
C1580      C1581   1.406       .  A
C1581      C1582   1.399   1_565  A
C1581      H1591   1.083       .  S
C1582      H1592   1.081       .  S
C1593      C1594   1.407       .  A
C1593      C1598   1.406       .  A
C1594      C1595   1.400       .  A
C1594      H1607   1.083       .  S
C1595      C1596   1.404       .  A
C1595      H1608   1.083       .  S
C1596      C1597   1.410       .  A
C1596      C1599   1.494       .  S
C1597      C1598   1.401       .  A
C1597      H1609   1.081       .  S
C1598      H1610   1.083       .  S
C1599      C1600   1.350       .  D
C1599      H1611   1.083       .  S
C1600      C1601   1.495       .  S
C1600      H1612   1.084       .  S
C1601      C1602   1.404       .  A
C1601      C1606   1.411       .  A
C1602      C1603   1.397       .  A
C1602      H1613   1.083       .  S
C1603      C1604   1.405       .  A
C1603      H1614   1.083       .  S
C1604      C1605   1.407       .  A
C1605      C1606   1.404       .  A
C1605      H1615   1.083       .  S
C1606      H1616   1.080       .  S
C1617      C1618   1.403       .  A
C1617      C1622   1.405       .  A
C1618      C1619   1.394   1_655  A
C1618      H1631   1.084   1_655  S
C1619      C1620   1.403   1_455  A
C1619      H1632   1.084       .  S
C1620      C1621   1.413       .  A
C1620      C1623   1.494   1_655  S
C1621      C1622   1.410       .  A
C1621      H1633   1.081       .  S
C1622      H1634   1.083       .  S
C1623      C1624   1.349       .  D
C1623      H1635   1.087       .  S
C1624      C1625   1.493       .  S
C1624      H1636   1.085   1_455  S
C1625      C1626   1.406       .  A
C1625      C1630   1.406       .  A
C1626      C1627   1.407       .  A
C1626      H1637   1.083       .  S
C1627      C1628   1.408       .  A
C1627      H1638   1.083       .  S
C1628      C1629   1.406       .  A
C1629      C1630   1.397       .  A
C1629      H1639   1.083       .  S
C1630      H1640   1.083       .  S
C1641      C1642   1.405       .  A
C1641      C1646   1.404       .  A
C1642      C1643   1.400       .  A
C1642      H1655   1.083       .  S
C1643      C1644   1.404       .  A
C1643      H1656   1.084       .  S
C1644      C1645   1.407       .  A
C1644      C1647   1.483       .  S
C1645      C1646   1.392       .  A
C1645      H1657   1.081       .  S
C1646      H1658   1.084       .  S
C1647      C1648   1.345       .  D
C1647      H1659   1.085       .  S
C1648      C1649   1.483       .  S
C1648      H1660   1.086       .  S
C1649      C1650   1.402       .  A
C1649      C1654   1.409       .  A
C1650      C1651   1.394       .  A
C1650      H1661   1.084       .  S
C1651      C1652   1.405       .  A
C1651      H1662   1.083       .  S
C1652      C1653   1.405       .  A
C1653      C1654   1.398       .  A
C1653      H1663   1.083       .  S
C1654      H1664   1.081       .  S
C1665      C1666   1.405       .  A
C1665      C1670   1.405       .  A
C1666      C1667   1.396       .  A
C1666      H1679   1.083       .  S
C1667      C1668   1.404       .  A
C1667      H1680   1.084       .  S
C1668      C1669   1.413       .  A
C1668      C1671   1.497       .  S
C1669      C1670   1.406       .  A
C1669      H1681   1.080       .  S
C1670      H1682   1.083       .  S
C1671      C1672   1.351       .  D
C1671      H1683   1.085       .  S
C1672      C1673   1.496       .  S
C1672      H1684   1.083       .  S
C1673      C1674   1.406       .  A
C1673      C1678   1.409       .  A
C1674      C1675   1.403       .  A
C1674      H1685   1.083       .  S
C1675      C1676   1.406       .  A
C1675      H1686   1.083       .  S
C1676      C1677   1.407       .  A
C1677      C1678   1.400       .  A
C1677      H1687   1.083       .  S
C1678      H1688   1.081       .  S
C1689      C1690   1.407       .  A
C1689      C1694   1.406       .  A
C1690      C1691   1.401       .  A
C1690      H1703   1.083       .  S
C1691      C1692   1.404       .  A
C1691      H1704   1.083       .  S
C1692      C1693   1.411       .  A
C1692      C1695   1.498       .  S
C1693      C1694   1.406       .  A
C1693      H1705   1.082       .  S
C1694      H1706   1.083       .  S
C1695      C1696   1.349       .  D
C1695      H1707   1.086       .  S
C1696      C1697   1.494       .  S
C1696      H1708   1.086       .  S
C1697      C1698   1.402       .  A
C1697      C1702   1.412       .  A
C1698      C1699   1.396       .  A
C1698      H1709   1.084       .  S
C1699      C1700   1.405       .  A
C1699      H1710   1.083       .  S
C1700      C1701   1.406       .  A
C1701      C1702   1.411       .  A
C1701      H1711   1.083       .  S
C1702      H1712   1.082       .  S
C1713      C1714   1.406       .  A
C1713      C1718   1.406       .  A
C1714      C1715   1.400       .  A
C1714      H1727   1.083       .  S
C1715      C1716   1.404       .  A
C1715      H1728   1.084       .  S
C1716      C1717   1.409       .  A
C1716      C1719   1.490       .  S
C1717      C1718   1.398       .  A
C1717      H1729   1.081       .  S
C1718      H1730   1.083       .  S
C1719      C1720   1.349       .  D
C1719      H1731   1.084       .  S
C1720      C1721   1.491       .  S
C1720      H1732   1.085       .  S
C1721      C1722   1.404       .  A
C1721      C1726   1.410       .  A
C1722      C1723   1.397       .  A
C1722      H1733   1.084       .  S
C1723      C1724   1.405       .  A
C1723      H1734   1.083       .  S
C1724      C1725   1.406       .  A
C1725      C1726   1.401       .  A
C1725      H1735   1.083       .  S
C1726      H1736   1.080       .  S
C1737      C1738   1.406       .  A
C1737      C1742   1.406       .  A
C1738      C1739   1.405       .  A
C1738      H1751   1.083       .  S
C1739      C1740   1.407       .  A
C1739      H1752   1.083       .  S
C1740      C1741   1.408       .  A
C1740      C1743   1.495       .  S
C1741      C1742   1.397       .  A
C1741      H1753   1.081       .  S
C1742      H1754   1.083       .  S
C1743      C1744   1.351       .  D
C1743      H1755   1.084       .  S
C1744      C1745   1.493       .  S
C1744      H1756   1.085       .  S
C1745      C1746   1.404       .  A
C1745      C1750   1.411       .  A
C1746      C1747   1.396       .  A
C1746      H1757   1.084       .  S
C1747      C1748   1.405       .  A
C1747      H1758   1.083       .  S
C1748      C1749   1.406       .  A
C1749      C1750   1.406       .  A
C1749      H1759   1.083       .  S
C1750      H1760   1.081       .  S
C1761      C1762   1.406       .  A
C1761      C1766   1.406       .  A
C1762      C1763   1.398       .  A
C1762      H1775   1.083       .  S
C1763      C1764   1.404       .  A
C1763      H1776   1.084       .  S
C1764      C1765   1.411       .  A
C1764      C1767   1.494       .  S
C1765      C1766   1.403       .  A
C1765      H1777   1.080       .  S
C1766      H1778   1.083       .  S
C1767      C1768   1.350       .  D
C1767      H1779   1.085       .  S
C1768      C1769   1.494       .  S
C1768      H1780   1.085       .  S
C1769      C1770   1.405       .  A
C1769      C1774   1.409       .  A
C1770      C1771   1.402       .  A
C1770      H1781   1.083       .  S
C1771      C1772   1.406       .  A
C1771      H1782   1.083       .  S
C1772      C1773   1.405       .  A
C1773      C1774   1.400       .  A
C1773      H1783   1.083       .  S
C1774      H1784   1.081       .  S
C1785      C1786   1.405       .  A
C1785      C1790   1.406       .  A
C1786      C1787   1.404       .  A
C1786      H1799   1.083       .  S
C1787      C1788   1.407       .  A
C1787      H1800   1.083       .  S
C1788      C1789   1.410       .  A
C1788      C1791   1.498       .  S
C1789      C1790   1.399       .  A
C1789      H1801   1.080       .  S
C1790      H1802   1.083       .  S
C1791      C1792   1.351       .  D
C1791      H1803   1.085       .  S
C1792      C1793   1.494       .  S
C1792      H1804   1.084       .  S
C1793      C1794   1.403       .  A
C1793      C1798   1.411       .  A
C1794      C1795   1.396       .  A
C1794      H1805   1.084       .  S
C1795      C1796   1.405       .  A
C1795      H1806   1.083       .  S
C1796      C1797   1.407       .  A
C1797      C1798   1.408       .  A
C1797      H1807   1.083       .  S
C1798      H1808   1.081       .  S
C1809      C1810   1.405       .  A
C1809      C1814   1.406       .  A
C1810      C1811   1.401       .  A
C1810      H1823   1.083       .  S
C1811      C1812   1.406       .  A
C1811      H1824   1.083       .  S
C1812      C1813   1.409       .  A
C1812      C1815   1.494       .  S
C1813      C1814   1.398       .  A
C1813      H1825   1.080       .  S
C1814      H1826   1.083       .  S
C1815      C1816   1.349       .  D
C1815      H1827   1.086       .  S
C1816      C1817   1.488       .  S
C1816      H1828   1.084       .  S
C1817      C1818   1.401       .  A
C1817      C1822   1.410       .  A
C1818      C1819   1.393       .  A
C1818      H1829   1.084       .  S
C1819      C1820   1.405       .  A
C1819      H1830   1.083       .  S
C1820      C1821   1.406       .  A
C1821      C1822   1.406       .  A
C1821      H1831   1.083       .  S
C1822      H1832   1.082       .  S
C1833      C1834   1.406       .  A
C1833      C1838   1.405       .  A
C1834      C1835   1.398       .  A
C1834      H1847   1.083       .  S
C1835      C1836   1.403       .  A
C1835      H1848   1.084       .  S
C1836      C1837   1.408       .  A
C1836      C1839   1.486       .  S
C1837      C1838   1.397       .  A
C1837      H1849   1.081       .  S
C1838      H1850   1.083       .  S
C1839      C1840   1.347       .  D
C1839      H1851   1.085       .  S
C1840      C1841   1.485       .  S
C1840      H1852   1.085       .  S
C1841      C1842   1.402       .  A
C1841      C1846   1.409       .  A
C1842      C1843   1.395       .  A
C1842      H1853   1.084       .  S
C1843      C1844   1.406       .  A
C1843      H1854   1.083       .  S
C1844      C1845   1.405       .  A
C1845      C1846   1.399       .  A
C1845      H1855   1.083       .  S
C1846      H1856   1.080       .  S
C1857      C1858   1.405       .  A
C1857      C1862   1.407       .  A
C1858      C1859   1.396       .  A
C1858      H1871   1.083       .  S
C1859      C1860   1.404       .  A
C1859      H1872   1.084       .  S
C1860      C1861   1.411       .  A
C1860      C1863   1.494       .  S
C1861      C1862   1.408       .  A
C1861      H1873   1.081       .  S
C1862      H1874   1.083       .  S
C1863      C1864   1.351       .  D
C1863      H1875   1.085       .  S
C1864      C1865   1.496       .  S
C1864      H1876   1.085       .  S
C1865      C1866   1.406       .  A
C1865      C1870   1.409       .  A
C1866      C1867   1.405       .  A
C1866      H1877   1.083       .  S
C1867      C1868   1.406       .  A
C1867      H1878   1.083       .  S
C1868      C1869   1.407       .  A
C1869      C1870   1.399       .  A
C1869      H1879   1.083       .  S
C1870      H1880   1.081       .  S
C1881      C1882   1.405       .  A
C1881      C1886   1.405       .  A
C1882      C1883   1.397       .  A
C1882      H1895   1.083       .  S
C1883      C1884   1.404       .  A
C1883      H1896   1.084       .  S
C1884      C1885   1.410       .  A
C1884      C1887   1.491       .  S
C1885      C1886   1.402       .  A
C1885      H1897   1.080       .  S
C1886      H1898   1.083       .  S
C1887      C1888   1.348       .  D
C1887      H1899   1.086       .  S
C1888      C1889   1.491       .  S
C1888      H1900   1.084       .  S
C1889      C1890   1.405       .  A
C1889      C1894   1.409       .  A
C1890      C1891   1.402       .  A
C1890      H1901   1.083       .  S
C1891      C1892   1.405       .  A
C1891      H1902   1.083       .  S
C1892      C1893   1.404       .  A
C1893      C1894   1.397       .  A
C1893      H1903   1.083       .  S
C1894      H1904   1.081       .  S
C1905      C1906   1.406       .  A
C1905      C1910   1.406       .  A
C1906      C1907   1.401       .  A
C1906      H1919   1.083       .  S
C1907      C1908   1.404       .  A
C1907      H1920   1.083       .  S
C1908      C1909   1.408       .  A
C1908      C1911   1.488       .  S
C1909      C1910   1.397       .  A
C1909      H1921   1.081       .  S
C1910      H1922   1.083       .  S
C1911      C1912   1.347       .  D
C1911      H1923   1.085       .  S
C1912      C1913   1.487       .  S
C1912      H1924   1.086       .  S
C1913      C1914   1.402       .  A
C1913      C1918   1.410       .  A
C1914      C1915   1.394       .  A
C1914      H1925   1.084       .  S
C1915      C1916   1.405       .  A
C1915      H1926   1.083       .  S
C1916      C1917   1.405       .  A
C1917      C1918   1.404       .  A
C1917      H1927   1.083       .  S
C1918      H1928   1.081       .  S
C1929      C1930   1.405       .  A
C1929      C1934   1.407       .  A
C1930      C1931   1.395       .  A
C1930      H1943   1.083       .  S
C1931      C1932   1.403       .  A
C1931      H1944   1.084       .  S
C1932      C1933   1.411       .  A
C1932      C1935   1.492       .  S
C1933      C1934   1.407       .  A
C1933      H1945   1.081       .  S
C1934      H1946   1.083       .  S
C1935      C1936   1.350       .  D
C1935      H1947   1.084       .  S
C1936      C1937   1.496       .  S
C1936      H1948   1.085       .  S
C1937      C1938   1.405       .  A
C1937      C1942   1.410       .  A
C1938      C1939   1.401       .  A
C1938      H1949   1.083       .  S
C1939      C1940   1.407       .  A
C1939      H1950   1.083       .  S
C1940      C1941   1.406       .  A
C1941      C1942   1.401       .  A
C1941      H1951   1.083       .  S
C1942      H1952   1.081       .  S
C1953      C1954   1.405       .  A
C1953      C1958   1.404       .  A
C1954      C1955   1.396       .  A
C1954      H1967   1.083       .  S
C1955      C1956   1.403       .  A
C1955      H1968   1.084       .  S
C1956      C1957   1.411       .  A
C1956      C1959   1.490       .  S
C1957      C1958   1.401       .  A
C1957      H1969   1.080       .  S
C1958      H1970   1.083       .  S
C1959      C1960   1.347       .  D
C1959      H1971   1.086       .  S
C1960      C1961   1.486       .  S
C1960      H1972   1.084       .  S
C1961      C1962   1.402       .  A
C1961      C1966   1.408       .  A
C1962      C1963   1.397       .  A
C1962      H1973   1.084       .  S
C1963      C1964   1.406       .  A
C1963      H1974   1.083       .  S
C1964      C1965   1.407       .  A
C1965      C1966   1.401       .  A
C1965      H1975   1.083       .  S
C1966      H1976   1.082       .  S
C1977      C1978   1.407       .  A
C1977      C1982   1.407       .  A
C1978      C1979   1.406       .  A
C1978      H1991   1.083       .  S
C1979      C1980   1.407       .  A
C1979      H1992   1.084       .  S
C1980      C1981   1.409       .  A
C1980      C1983   1.498       .  S
C1981      C1982   1.398       .  A
C1981      H1993   1.081       .  S
C1982      H1994   1.083       .  S
C1983      C1984   1.351       .  D
C1983      H1995   1.085       .  S
C1984      C1985   1.494       .  S
C1984      H1996   1.085       .  S
C1985      C1986   1.403       .  A
C1985      C1990   1.411       .  A
C1986      C1987   1.396       .  A
C1986      H1997   1.084       .  S
C1987      C1988   1.406       .  A
C1987      H1998   1.083       .  S
C1988      C1989   1.408       .  A
C1989      C1990   1.408       .  A
C1989      H1999   1.083       .  S
C1990      H2000   1.081       .  S
C2001      C2002   1.406       .  A
C2001      C2006   1.406       .  A
C2002      C2003   1.400       .  A
C2002      H2015   1.083       .  S
C2003      C2004   1.405       .  A
C2003      H2016   1.083       .  S
C2004      C2005   1.409       .  A
C2004      C2007   1.493       .  S
C2005      C2006   1.400       .  A
C2005      H2017   1.081       .  S
C2006      H2018   1.083       .  S
C2007      C2008   1.349       .  D
C2007      H2019   1.085       .  S
C2008      C2009   1.491       .  S
C2008      H2020   1.085       .  S
C2009      C2010   1.403       .  A
C2009      C2014   1.411       .  A
C2010      C2011   1.395       .  A
C2010      H2021   1.084       .  S
C2011      C2012   1.405       .  A
C2011      H2022   1.083       .  S
C2012      C2013   1.406       .  A
C2013      C2014   1.405       .  A
C2013      H2023   1.083       .  S
C2014      H2024   1.081       .  S
C2025      C2026   1.407       .  A
C2025      C2030   1.406       .  A
C2026      C2027   1.399       .  A
C2026      H2039   1.083       .  S
C2027      C2028   1.403       .  A
C2027      H2040   1.084       .  S
C2028      C2029   1.410       .  A
C2028      C2031   1.493       .  S
C2029      C2030   1.401       .  A
C2029      H2041   1.081       .  S
C2030      H2042   1.083       .  S
C2031      C2032   1.349       .  D
C2031      H2043   1.084       .  S
C2032      C2033   1.494       .  S
C2032      H2044   1.085       .  S
C2033      C2034   1.404       .  A
C2033      C2038   1.412       .  A
C2034      C2035   1.396       .  A
C2034      H2045   1.084       .  S
C2035      C2036   1.405       .  A
C2035      H2046   1.083       .  S
C2036      C2037   1.406       .  A
C2037      C2038   1.404       .  A
C2037      H2047   1.083       .  S
C2038      H2048   1.080       .  S
C2049      C2050   1.402       .  A
C2049      C2054   1.407       .  A
C2050      C2051   1.395       .  A
C2050      H2063   1.083       .  S
C2051      C2052   1.404       .  A
C2051      H2064   1.084       .  S
C2052      C2053   1.412       .  A
C2052      C2055   1.494       .  S
C2053      C2054   1.408       .  A
C2053      H2065   1.081       .  S
C2054      H2066   1.083       .  S
C2055      C2056   1.351       .  D
C2055      H2067   1.086       .  S
C2056      C2057   1.495       .  S
C2056      H2068   1.084       .  S
C2057      C2058   1.407       .  A
C2057      C2062   1.407       .  A
C2058      C2059   1.407       .  A
C2058      H2069   1.083       .  S
C2059      C2060   1.407       .  A
C2059      H2070   1.083       .  S
C2060      C2061   1.406       .  A
C2061      C2062   1.396       .  A
C2061      H2071   1.083       .  S
C2062      H2072   1.082       .  S
C2073      C2074   1.408       .  A
C2073      C2078   1.404       .  A
C2074      C2075   1.402       .  A
C2074      H2087   1.083       .  S
C2075      C2076   1.404       .  A
C2075      H2088   1.083       .  S
C2076      C2077   1.409       .  A
C2076      C2079   1.490       .  S
C2077      C2078   1.397       .  A
C2077      H2089   1.081       .  S
C2078      H2090   1.083       .  S
C2079      C2080   1.347       .  D
C2079      H2091   1.085       .  S
C2080      C2081   1.489       .  S
C2080      H2092   1.086       .  S
C2081      C2082   1.402       .  A
C2081      C2086   1.411       .  A
C2082      C2083   1.394       .  A
C2082      H2093   1.084       .  S
C2083      C2084   1.406       .  A
C2083      H2094   1.083       .  S
C2084      C2085   1.406       .  A
C2085      C2086   1.405       .  A
C2085      H2095   1.083       .  S
C2086      H2096   1.081       .  S
C2097      C2098   1.406       .  A
C2097      C2102   1.406       .  A
C2098      C2099   1.403       .  A
C2098      H2111   1.083       .  S
C2099      C2100   1.406       .  A
C2099      H2112   1.083       .  S
C2100      C2101   1.409       .  A
C2100      C2103   1.494       .  S
C2101      C2102   1.399       .  A
C2101      H2113   1.081       .  S
C2102      H2114   1.083       .  S
C2103      C2104   1.350       .  D
C2103      H2115   1.084       .  S
C2104      C2105   1.495       .  S
C2104      H2116   1.086       .  S
C2105      C2106   1.403       .  A
C2105      C2110   1.411       .  A
C2106      C2107   1.397       .  A
C2106      H2117   1.084       .  S
C2107      C2108   1.407       .  A
C2107      H2118   1.083       .  S
C2108      C2109   1.406       .  A
C2109      C2110   1.406       .  A
C2109      H2119   1.083       .  S
C2110      H2120   1.080       .  S
C2121      C2122   1.405       .  A
C2121      C2126   1.406       .  A
C2122      C2123   1.397       .  A
C2122      H2135   1.083       .  S
C2123      C2124   1.405       .  A
C2123      H2136   1.084       .  S
C2124      C2125   1.410       .  A
C2124      C2127   1.492       .  S
C2125      C2126   1.402       .  A
C2125      H2137   1.080       .  S
C2126      H2138   1.083       .  S
C2127      C2128   1.351       .  D
C2127      H2139   1.085       .  S
C2128      C2129   1.492       .  S
C2128      H2140   1.083       .  S
C2129      C2130   1.406       .  A
C2129      C2134   1.407       .  A
C2130      C2131   1.402       .  A
C2130      H2141   1.083       .  S
C2131      C2132   1.406       .  A
C2131      H2142   1.083       .  S
C2132      C2133   1.406       .  A
C2133      C2134   1.396       .  A
C2133      H2143   1.083       .  S
C2134      H2144   1.081       .  S
C2145      C2146   1.405       .  A
C2145      C2150   1.407       .  A
C2146      C2147   1.392       .  A
C2146      H2159   1.083       .  S
C2147      C2148   1.400       .  A
C2147      H2160   1.084       .  S
C2148      C2149   1.410       .  A
C2148      C2151   1.486       .  S
C2149      C2150   1.409       .  A
C2149      H2161   1.082       .  S
C2150      H2162   1.083       .  S
C2151      C2152   1.347       .  D
C2151      H2163   1.088       .  S
C2152      C2153   1.489       .  S
C2152      H2164   1.085       .  S
C2153      C2154   1.406       .  A
C2153      C2158   1.403       .  A
C2154      C2155   1.408       .  A
C2154      H2165   1.083       .  S
C2155      C2156   1.408       .  A
C2155      H2166   1.083       .  S
C2156      C2157   1.407       .  A
C2157      C2158   1.392       .  A
C2157      H2167   1.083       .  S
C2158      H2168   1.083       .  S
C2169      C2170   1.405       .  A
C2169      C2174   1.405       .  A
C2170      C2171   1.406       .  A
C2170      H2183   1.083       .  S
C2171      C2172   1.408       .  A
C2171      H2184   1.083       .  S
C2172      C2173   1.406       .  A
C2172      C2175   1.492       .  S
C2173      C2174   1.393       .  A
C2173      H2185   1.082       .  S
C2174      H2186   1.084       .  S
C2175      C2176   1.351       .  D
C2175      H2187   1.084       .  S
C2176      C2177   1.493       .  S
C2176      H2188   1.086       .  S
C2177      C2178   1.405       .  A
C2177      C2182   1.410       .  A
C2178      C2179   1.398       .  A
C2178      H2189   1.084       .  S
C2179      C2180   1.404       .  A
C2179      H2190   1.083       .  S
C2180      C2181   1.407       .  A
C2181      C2182   1.403       .  A
C2181      H2191   1.083       .  S
C2182      H2192   1.080       .  S
C2193      C2194   1.400       .  A
C2193      C2198   1.401       .  A
C2194      C2195   1.396       .  A
C2194      H2207   1.084       .  S
C2195      C2196   1.404       .  A
C2195      H2208   1.084       .  S
C2196      C2197   1.409       .  A
C2196      C2199   1.484       .  S
C2197      C2198   1.400       .  A
C2197      H2209   1.082       .  S
C2198      H2210   1.083       .  S
C2199      C2200   1.348       .  D
C2199      H2211   1.086       .  S
C2200      C2201   1.485       .  S
C2200      H2212   1.085       .  S
C2201      C2202   1.404       .  A
C2201      C2206   1.407       .  A
C2202      C2203   1.400       .  A
C2202      H2213   1.083       .  S
C2203      C2204   1.405       .  A
C2203      H2214   1.083       .  S
C2204      C2205   1.405       .  A
C2205      C2206   1.394       .  A
C2205      H2215   1.083       .  S
C2206      H2216   1.082       .  S
C2217      C2218   1.407       .  A
C2217      C2222   1.406       .  A
C2218      C2219   1.405       .  A
C2218      H2231   1.083       .  S
C2219      C2220   1.406       .  A
C2219      H2232   1.083       .  S
C2220      C2221   1.408       .  A
C2220      C2223   1.496       .  S
C2221      C2222   1.398       .  A
C2221      H2233   1.081       .  S
C2222      H2234   1.083       .  S
C2223      C2224   1.350       .  D
C2223      H2235   1.084       .  S
C2224      C2225   1.494       .  S
C2224      H2236   1.085       .  S
C2225      C2226   1.403       .  A
C2225      C2230   1.412       .  A
C2226      C2227   1.394       .  A
C2226      H2237   1.084       .  S
C2227      C2228   1.405       .  A
C2227      H2238   1.084       .  S
C2228      C2229   1.407       .  A
C2229      C2230   1.409       .  A
C2229      H2239   1.083       .  S
C2230      H2240   1.081       .  S
C2241      C2242   1.406       .  A
C2241      C2246   1.406       .  A
C2242      C2243   1.401       .  A
C2242      H2255   1.083       .  S
C2243      C2244   1.405       .  A
C2243      H2256   1.083       .  S
C2244      C2245   1.409       .  A
C2244      C2247   1.492       .  S
C2245      C2246   1.398       .  A
C2245      H2257   1.081       .  S
C2246      H2258   1.083       .  S
C2247      C2248   1.349       .  D
C2247      H2259   1.084       .  S
C2248      C2249   1.491   1_556  S
C2248      H2260   1.085       .  S
C2249      C2250   1.403       .  A
C2249      C2254   1.410       .  A
C2250      C2251   1.396       .  A
C2250      H2261   1.083       .  S
C2251      C2252   1.405       .  A
C2251      H2262   1.083       .  S
C2252      C2253   1.407       .  A
C2253      C2254   1.403       .  A
C2253      H2263   1.083       .  S
C2254      H2264   1.081       .  S
C2265      C2266   1.405       .  A
C2265      C2270   1.405       .  A
C2266      C2267   1.405       .  A
C2266      H2279   1.083       .  S
C2267      C2268   1.406       .  A
C2267      H2280   1.083       .  S
C2268      C2269   1.405       .  A
C2268      C2271   1.486       .  S
C2269      C2270   1.396       .  A
C2269      H2281   1.083       .  S
C2270      H2282   1.083       .  S
C2271      C2272   1.348       .  D
C2271      H2283   1.086       .  S
C2272      C2273   1.486       .  S
C2272      H2284   1.087       .  S
C2273      C2274   1.406       .  A
C2273      C2278   1.406       .  A
C2274      C2275   1.403       .  A
C2274      H2285   1.083       .  S
C2275      C2276   1.403       .  A
C2275      H2286   1.083       .  S
C2276      C2277   1.403       .  A
C2277      C2278   1.398       .  A
C2277      H2287   1.083       .  S
C2278      H2288   1.082       .  S
C2289      C2290   1.406       .  A
C2289      C2294   1.406       .  A
C2290      C2291   1.396       .  A
C2290      H2303   1.083       .  S
C2291      C2292   1.402       .  A
C2291      H2304   1.084       .  S
C2292      C2293   1.408       .  A
C2292      C2295   1.484       .  S
C2293      C2294   1.399       .  A
C2293      H2305   1.081       .  S
C2294      H2306   1.083       .  S
C2295      C2296   1.345       .  D
C2295      H2307   1.086       .  S
C2296      C2297   1.484       .  S
C2296      H2308   1.086       .  S
C2297      C2298   1.402       .  A
C2297      C2302   1.407       .  A
C2298      C2299   1.399       .  A
C2298      H2309   1.083       .  S
C2299      C2300   1.407       .  A
C2299      H2310   1.083       .  S
C2300      C2301   1.404       .  A
C2301      C2302   1.396       .  A
C2301      H2311   1.083       .  S
C2302      H2312   1.082       .  S
C2313      C2314   1.406       .  A
C2313      C2318   1.408       .  A
C2314      C2315   1.393       .  A
C2314      H2327   1.083       .  S
C2315      C2316   1.402       .  A
C2315      H2328   1.084       .  S
C2316      C2317   1.412       .  A
C2316      C2319   1.493       .  S
C2317      C2318   1.411       .  A
C2317      H2329   1.081       .  S
C2318      H2330   1.083       .  S
C2319      C2320   1.350       .  D
C2319      H2331   1.087       .  S
C2320      C2321   1.495       .  S
C2320      H2332   1.085       .  S
C2321      C2322   1.407       .  A
C2321      C2326   1.405       .  A
C2322      C2323   1.409       .  A
C2322      H2333   1.083       .  S
C2323      C2324   1.408       .  A
C2323      H2334   1.083       .  S
C2324      C2325   1.407       .  A
C2325      C2326   1.394       .  A
C2325      H2335   1.083       .  S
C2326      H2336   1.083       .  S
C2337      C2338   1.404       .  A
C2337      C2342   1.405       .  A
C2338      C2339   1.406       .  A
C2338      H2351   1.083       .  S
C2339      C2340   1.407       .  A
C2339      H2352   1.083       .  S
C2340      C2341   1.404       .  A
C2340      C2343   1.486       .  S
C2341      C2342   1.388       .  A
C2341      H2353   1.082       .  S
C2342      H2354   1.084       .  S
C2343      C2344   1.348       .  D
C2343      H2355   1.085       .  S
C2344      C2345   1.485       .  S
C2344      H2356   1.087       .  S
C2345      C2346   1.403       .  A
C2345      C2350   1.409       .  A
C2346      C2347   1.395       .  A
C2346      H2357   1.084       .  S
C2347      C2348   1.405       .  A
C2347      H2358   1.084       .  S
C2348      C2349   1.405       .  A
C2349      C2350   1.401       .  A
C2349      H2359   1.083       .  S
C2350      H2360   1.081       .  S
C2361      C2362   1.406       .  A
C2361      C2366   1.406       .  A
C2362      C2363   1.398       .  A
C2362      H2375   1.083       .  S
C2363      C2364   1.403       .  A
C2363      H2376   1.083       .  S
C2364      C2365   1.407       .  A
C2364      C2367   1.486       .  S
C2365      C2366   1.401       .  A
C2365      H2377   1.082       .  S
C2366      H2378   1.083       .  S
C2367      C2368   1.346       .  D
C2367      H2379   1.087       .  S
C2368      C2369   1.486       .  S
C2368      H2380   1.086       .  S
C2369      C2370   1.406       .  A
C2369      C2374   1.406       .  A
C2370      C2371   1.404       .  A
C2370      H2381   1.083       .  S
C2371      C2372   1.404       .  A
C2371      H2382   1.083       .  S
C2372      C2373   1.403       .  A
C2373      C2374   1.396       .  A
C2373      H2383   1.084       .  S
C2374      H2384   1.083       .  S
C2385      C2386   1.404       .  A
C2385      C2390   1.408       .  A
C2386      C2387   1.399       .  A
C2386      H2399   1.083       .  S
C2387      C2388   1.407       .  A
C2387      H2400   1.084       .  S
C2388      C2389   1.408       .  A
C2388      C2391   1.494       .  S
C2389      C2390   1.401       .  A
C2389      H2401   1.079       .  S
C2390      H2402   1.083       .  S
C2391      C2392   1.353       .  D
C2391      H2403   1.086       .  S
C2392      C2393   1.492       .  S
C2392      H2404   1.083       .  S
C2393      C2394   1.408       .  A
C2393      C2398   1.404       .  A
C2394      C2395   1.408       .  A
C2394      H2405   1.083       .  S
C2395      C2396   1.407       .  A
C2395      H2406   1.082       .  S
C2396      C2397   1.408       .  A
C2397      C2398   1.393       .  A
C2397      H2407   1.083       .  S
C2398      H2408   1.082       .  S
C2409      C2410   1.405       .  A
C2409      C2414   1.408       .  A
C2410      C2411   1.395       .  A
C2410      H2423   1.083       .  S
C2411      C2412   1.403       .  A
C2411      H2424   1.084       .  S
C2412      C2413   1.411       .  A
C2412      C2415   1.493       .  S
C2413      C2414   1.409       .  A
C2413      H2425   1.081       .  S
C2414      H2426   1.083       .  S
C2415      C2416   1.351       .  D
C2415      H2427   1.084       .  S
C2416      C2417   1.499       .  S
C2416      H2428   1.085       .  S
C2417      C2418   1.407       .  A
C2417      C2422   1.409       .  A
C2418      C2419   1.406       .  A
C2418      H2429   1.083       .  S
C2419      C2420   1.407       .  A
C2419      H2430   1.083       .  S
C2420      C2421   1.406       .  A
C2421      C2422   1.398       .  A
C2421      H2431   1.083       .  S
C2422      H2432   1.080       .  S
C2433      C2434   1.407       .  A
C2433      C2438   1.405       .  A
C2434      C2435   1.401       .  A
C2434      H2447   1.083       .  S
C2435      C2436   1.405       .  A
C2435      H2448   1.083       .  S
C2436      C2437   1.409       .  A
C2436      C2439   1.494       .  S
C2437      C2438   1.400       .  A
C2437      H2449   1.081       .  S
C2438      H2450   1.083       .  S
C2439      C2440   1.350       .  D
C2439      H2451   1.085       .  S
C2440      C2441   1.491       .  S
C2440      H2452   1.084       .  S
C2441      C2442   1.403       .  A
C2441      C2446   1.410       .  A
C2442      C2443   1.395       .  A
C2442      H2453   1.083       .  S
C2443      C2444   1.405       .  A
C2443      H2454   1.083       .  S
C2444      C2445   1.407       .  A
C2445      C2446   1.406       .  A
C2445      H2455   1.083       .  S
C2446      H2456   1.081       .  S
C2457      C2458   1.406       .  A
C2457      C2462   1.406       .  A
C2458      C2459   1.400       .  A
C2458      H2471   1.083       .  S
C2459      C2460   1.402       .  A
C2459      H2472   1.084       .  S
C2460      C2461   1.406       .  A
C2460      C2463   1.483       .  S
C2461      C2462   1.400       .  A
C2461      H2473   1.083       .  S
C2462      H2474   1.083       .  S
C2463      C2464   1.345   1_556  D
C2463      H2475   1.087       .  S
C2464      C2465   1.482       .  S
C2464      H2476   1.087   1_554  S
C2465      C2466   1.402       .  A
C2465      C2470   1.407       .  A
C2466      C2467   1.397       .  A
C2466      H2477   1.084       .  S
C2467      C2468   1.405       .  A
C2467      H2478   1.083       .  S
C2468      C2469   1.405       .  A
C2469      C2470   1.402       .  A
C2469      H2479   1.083       .  S
C2470      H2480   1.082       .  S
C2481      C2482   1.406       .  A
C2481      C2486   1.404       .  A
C2482      C2483   1.397       .  A
C2482      H2495   1.083       .  S
C2483      C2484   1.401       .  A
C2483      H2496   1.083       .  S
C2484      C2485   1.407       .  A
C2484      C2487   1.480       .  S
C2485      C2486   1.395       .  A
C2485      H2497   1.082       .  S
C2486      H2498   1.083       .  S
C2487      C2488   1.344       .  D
C2487      H2499   1.086       .  S
C2488      C2489   1.480       .  S
C2488      H2500   1.086       .  S
C2489      C2490   1.402       .  A
C2489      C2494   1.407       .  A
C2490      C2491   1.398       .  A
C2490      H2501   1.083       .  S
C2491      C2492   1.405       .  A
C2491      H2502   1.083       .  S
C2492      C2493   1.404       .  A
C2493      C2494   1.394       .  A
C2493      H2503   1.083       .  S
C2494      H2504   1.082       .  S
C2505      C2506   1.404       .  A
C2505      C2510   1.405       .  A
C2506      C2507   1.404       .  A
C2506      H2519   1.083       .  S
C2507      C2508   1.406       .  A
C2507      H2520   1.083       .  S
C2508      C2509   1.406       .  A
C2508      C2511   1.487       .  S
C2509      C2510   1.397       .  A
C2509      H2521   1.082       .  S
C2510      H2522   1.084       .  S
C2511      C2512   1.348       .  D
C2511      H2523   1.086       .  S
C2512      C2513   1.487       .  S
C2512      H2524   1.087       .  S
C2513      C2514   1.406       .  A
C2513      C2518   1.407       .  A
C2514      C2515   1.402       .  A
C2514      H2525   1.083       .  S
C2515      C2516   1.402       .  A
C2515      H2526   1.083       .  S
C2516      C2517   1.403       .  A
C2517      C2518   1.398       .  A
C2517      H2527   1.084       .  S
C2518      H2528   1.082       .  S
C2529      C2530   1.407       .  A
C2529      C2534   1.407       .  A
C2530      C2531   1.407       .  A
C2530      H2543   1.083       .  S
C2531      C2532   1.407       .  A
C2531      H2544   1.083       .  S
C2532      C2533   1.409       .  A
C2532      C2535   1.499       .  S
C2533      C2534   1.399       .  A
C2533      H2545   1.081       .  S
C2534      H2546   1.083       .  S
C2535      C2536   1.352       .  D
C2535      H2547   1.084       .  S
C2536      C2537   1.497       .  S
C2536      H2548   1.085       .  S
C2537      C2538   1.404       .  A
C2537      C2542   1.412       .  A
C2538      C2539   1.396       .  A
C2538      H2549   1.084       .  S
C2539      C2540   1.406       .  A
C2539      H2550   1.083       .  S
C2540      C2541   1.408       .  A
C2541      C2542   1.410       .  A
C2541      H2551   1.083       .  S
C2542      H2552   1.081       .  S
C2553      C2554   1.405       .  A
C2553      C2558   1.405       .  A
C2554      C2555   1.393       .  A
C2554      H2567   1.083       .  S
C2555      C2556   1.406       .  A
C2555      H2568   1.082       .  S
C2556      C2557   1.403       .  A
C2556      C2559   1.480       .  S
C2557      C2558   1.398       .  A
C2557      H2569   1.083       .  S
C2558      H2570   1.083       .  S
C2559      C2560   1.345       .  D
C2559      H2571   1.086       .  S
C2560      C2561   1.481       .  S
C2560      H2572   1.086       .  S
C2561      C2562   1.403       .  A
C2561      C2566   1.407       .  A
C2562      C2563   1.396       .  A
C2562      H2573   1.084       .  S
C2563      C2564   1.405       .  A
C2563      H2574   1.083       .  S
C2564      C2565   1.404       .  A
C2565      C2566   1.395       .  A
C2565      H2575   1.083       .  S
C2566      H2576   1.081       .  S
C2577      C2578   1.406       .  A
C2577      C2582   1.405       .  A
C2578      C2579   1.408       .  A
C2578      H2591   1.083       .  S
C2579      C2580   1.408       .  A
C2579      H2592   1.083       .  S
C2580      C2581   1.405       .  A
C2580      C2583   1.492       .  S
C2581      C2582   1.392       .  A
C2581      H2593   1.082       .  S
C2582      H2594   1.084       .  S
C2583      C2584   1.349       .  D
C2583      H2595   1.084       .  S
C2584      C2585   1.492       .  S
C2584      H2596   1.087       .  S
C2585      C2586   1.404       .  A
C2585      C2590   1.412       .  A
C2586      C2587   1.394       .  A
C2586      H2597   1.084       .  S
C2587      C2588   1.401       .  A
C2587      H2598   1.084       .  S
C2588      C2589   1.404       .  A
C2589      C2590   1.407       .  A
C2589      H2599   1.083       .  S
C2590      H2600   1.081       .  S
C2601      C2602   1.405       .  A
C2601      C2606   1.406       .  A
C2602      C2603   1.402       .  A
C2602      H2615   1.083       .  S
C2603      C2604   1.406       .  A
C2603      H2616   1.084       .  S
C2604      C2605   1.408       .  A
C2604      C2607   1.492       .  S
C2605      C2606   1.397       .  A
C2605      H2617   1.080       .  S
C2606      H2618   1.083       .  S
C2607      C2608   1.352       .  D
C2607      H2619   1.085       .  S
C2608      C2609   1.490       .  S
C2608      H2620   1.084       .  S
C2609      C2610   1.406       .  A
C2609      C2614   1.406       .  A
C2610      C2611   1.402       .  A
C2610      H2621   1.083       .  S
C2611      C2612   1.404       .  A
C2611      H2622   1.083       .  S
C2612      C2613   1.408       .  A
C2613      C2614   1.397       .  A
C2613      H2623   1.083       .  S
C2614      H2624   1.081       .  S
C2625      C2626   1.406       .  A
C2625      C2630   1.406       .  A
C2626      C2627   1.406       .  A
C2626      H2639   1.083       .  S
C2627      C2628   1.408       .  A
C2627      H2640   1.083       .  S
C2628      C2629   1.408       .  A
C2628      C2631   1.498       .  S
C2629      C2630   1.397       .  A
C2629      H2641   1.080       .  S
C2630      H2642   1.083       .  S
C2631      C2632   1.352       .  D
C2631      H2643   1.085       .  S
C2632      C2633   1.493       .  S
C2632      H2644   1.084       .  S
C2633      C2634   1.404       .  A
C2633      C2638   1.410       .  A
C2634      C2635   1.396       .  A
C2634      H2645   1.084       .  S
C2635      C2636   1.405       .  A
C2635      H2646   1.083       .  S
C2636      C2637   1.407       .  A
C2637      C2638   1.407       .  A
C2637      H2647   1.083       .  S
C2638      H2648   1.081       .  S
C2649      C2650   1.406       .  A
C2649      C2654   1.407       .  A
C2650      C2651   1.396       .  A
C2650      H2663   1.083       .  S
C2651      C2652   1.403       .  A
C2651      H2664   1.084       .  S
C2652      C2653   1.411       .  A
C2652      C2655   1.492       .  S
C2653      C2654   1.406       .  A
C2653      H2665   1.081       .  S
C2654      H2666   1.083       .  S
C2655      C2656   1.349       .  D
C2655      H2667   1.086       .  S
C2656      C2657   1.493       .  S
C2656      H2668   1.085       .  S
C2657      C2658   1.405       .  A
C2657      C2662   1.408       .  A
C2658      C2659   1.403       .  A
C2658      H2669   1.083       .  S
C2659      C2660   1.407       .  A
C2659      H2670   1.083       .  S
C2660      C2661   1.407       .  A
C2661      C2662   1.399       .  A
C2661      H2671   1.083       .  S
C2662      H2672   1.082       .  S
C2673      C2674   1.405       .  A
C2673      C2678   1.407       .  A
C2674      C2675   1.400       .  A
C2674      H2687   1.083       .  S
C2675      C2676   1.405       .  A
C2675      H2688   1.084       .  S
C2676      C2677   1.409       .  A
C2676      C2679   1.492       .  S
C2677      C2678   1.399       .  A
C2677      H2689   1.080       .  S
C2678      H2690   1.083       .  S
C2679      C2680   1.350   1_554  D
C2679      H2691   1.083   1_554  S
C2680      C2681   1.493       .  S
C2680      H2692   1.084       .  S
C2681      C2682   1.405       .  A
C2681      C2686   1.410       .  A
C2682      C2683   1.398       .  A
C2682      H2693   1.084       .  S
C2683      C2684   1.406       .  A
C2683      H2694   1.083       .  S
C2684      C2685   1.406       .  A
C2685      C2686   1.401       .  A
C2685      H2695   1.083       .  S
C2686      H2696   1.080       .  S
C2697      C2698   1.406       .  A
C2697      C2702   1.407       .  A
C2698      C2699   1.395       .  A
C2698      H2711   1.083       .  S
C2699      C2700   1.402       .  A
C2699      H2712   1.083       .  S
C2700      C2701   1.409       .  A
C2700      C2703   1.489       .  S
C2701      C2702   1.404       .  A
C2701      H2713   1.082       .  S
C2702      H2714   1.083       .  S
C2703      C2704   1.347       .  D
C2703      H2715   1.086       .  S
C2704      C2705   1.488       .  S
C2704      H2716   1.085       .  S
C2705      C2706   1.409       .  A
C2705      C2710   1.402       .  A
C2706      C2707   1.402       .  A
C2706      H2717   1.082       .  S
C2707      C2708   1.405       .  A
C2707      H2718   1.083       .  S
C2708      C2709   1.406       .  A
C2709      C2710   1.396       .  A
C2709      H2719   1.083       .  S
C2710      H2720   1.083       .  S
C2721      C2722   1.402       .  A
C2721      C2726   1.403       .  A
C2722      C2723   1.402       .  A
C2722      H2735   1.083       .  S
C2723      C2724   1.406       .  A
C2723      H2736   1.083       .  S
C2724      C2725   1.408       .  A
C2724      C2727   1.489       .  S
C2725      C2726   1.401       .  A
C2725      H2737   1.082       .  S
C2726      H2738   1.084       .  S
C2727      C2728   1.349       .  D
C2727      H2739   1.087       .  S
C2728      C2729   1.489       .  S
C2728      H2740   1.086       .  S
C2729      C2730   1.407       .  A
C2729      C2734   1.405       .  A
C2730      C2731   1.406       .  A
C2730      H2741   1.083       .  S
C2731      C2732   1.406       .  A
C2731      H2742   1.083       .  S
C2732      C2733   1.405       .  A
C2733      C2734   1.396       .  A
C2733      H2743   1.083       .  S
C2734      H2744   1.083       .  S
C2745      C2746   1.407       .  A
C2745      C2750   1.406       .  A
C2746      C2747   1.406       .  A
C2746      H2759   1.083       .  S
C2747      C2748   1.407       .  A
C2747      H2760   1.083       .  S
C2748      C2749   1.408       .  A
C2748      C2751   1.496       .  S
C2749      C2750   1.396       .  A
C2749      H2761   1.081       .  S
C2750      H2762   1.083       .  S
C2751      C2752   1.351       .  D
C2751      H2763   1.084       .  S
C2752      C2753   1.493       .  S
C2752      H2764   1.085       .  S
C2753      C2754   1.403       .  A
C2753      C2758   1.410       .  A
C2754      C2755   1.396       .  A
C2754      H2765   1.084       .  S
C2755      C2756   1.405       .  A
C2755      H2766   1.083       .  S
C2756      C2757   1.407       .  A
C2757      C2758   1.407       .  A
C2757      H2767   1.083       .  S
C2758      H2768   1.081       .  S
C2769      C2770   1.401       .  A
C2769      C2774   1.406       .  A
C2770      C2771   1.392       .  A
C2770      H2783   1.084       .  S
C2771      C2772   1.404       .  A
C2771      H2784   1.083       .  S
C2772      C2773   1.412       .  A
C2772      C2775   1.492       .  S
C2773      C2774   1.410       .  A
C2773      H2785   1.081       .  S
C2774      H2786   1.083       .  S
C2775      C2776   1.350       .  D
C2775      H2787   1.087       .  S
C2776      C2777   1.492       .  S
C2776      H2788   1.084       .  S
C2777      C2778   1.408       .  A
C2777      C2782   1.405       .  A
C2778      C2779   1.410       .  A
C2778      H2789   1.083       .  S
C2779      C2780   1.407       .  A
C2779      H2790   1.083       .  S
C2780      C2781   1.405       .  A
C2781      C2782   1.392       .  A
C2781      H2791   1.083       .  S
C2782      H2792   1.083       .  S
C2793      C2794   1.405       .  A
C2793      C2798   1.405       .  A
C2794      C2795   1.394       .  A
C2794      H2807   1.083       .  S
C2795      C2796   1.401       .  A
C2795      H2808   1.083       .  S
C2796      C2797   1.408       .  A
C2796      C2799   1.482       .  S
C2797      C2798   1.399       .  A
C2797      H2809   1.082       .  S
C2798      H2810   1.083       .  S
C2799      C2800   1.345       .  D
C2799      H2811   1.086       .  S
C2800      C2801   1.481       .  S
C2800      H2812   1.085       .  S
C2801      C2802   1.401       .  A
C2801      C2806   1.408       .  A
C2802      C2803   1.394       .  A
C2802      H2813   1.083       .  S
C2803      C2804   1.404       .  A
C2803      H2814   1.083       .  S
C2804      C2805   1.405       .  A
C2805      C2806   1.399       .  A
C2805      H2815   1.083       .  S
C2806      H2816   1.082       .  S
C2817      C2818   1.406       .  A
C2817      C2822   1.407       .  A
C2818      C2819   1.398       .  A
C2818      H2831   1.083       .  S
C2819      C2820   1.404       .  A
C2819      H2832   1.084       .  S
C2820      C2821   1.410       .  A
C2820      C2823   1.493       .  S
C2821      C2822   1.404       .  A
C2821      H2833   1.081       .  S
C2822      H2834   1.083       .  S
C2823      C2824   1.350       .  D
C2823      H2835   1.086       .  S
C2824      C2825   1.492       .  S
C2824      H2836   1.085       .  S
C2825      C2826   1.405       .  A
C2825      C2830   1.407       .  A
C2826      C2827   1.404       .  A
C2826      H2837   1.083       .  S
C2827      C2828   1.407       .  A
C2827      H2838   1.083       .  S
C2828      C2829   1.407       .  A
C2829      C2830   1.398       .  A
C2829      H2839   1.083       .  S
C2830      H2840   1.082       .  S
C2841      C2842   1.407       .  A
C2841      C2846   1.406       .  A
C2842      C2843   1.404       .  A
C2842      H2855   1.083       .  S
C2843      C2844   1.406       .  A
C2843      H2856   1.083       .  S
C2844      C2845   1.409       .  A
C2844      C2847   1.495       .  S
C2845      C2846   1.397       .  A
C2845      H2857   1.081       .  S
C2846      H2858   1.083       .  S
C2847      C2848   1.350       .  D
C2847      H2859   1.084       .  S
C2848      C2849   1.492       .  S
C2848      H2860   1.085       .  S
C2849      C2850   1.403       .  A
C2849      C2854   1.411       .  A
C2850      C2851   1.394       .  A
C2850      H2861   1.084       .  S
C2851      C2852   1.405       .  A
C2851      H2862   1.083       .  S
C2852      C2853   1.407       .  A
C2853      C2854   1.408       .  A
C2853      H2863   1.083       .  S
C2854      H2864   1.080       .  S
C2865      C2866   1.404       .  A
C2865      C2870   1.406       .  A
C2866      C2867   1.395       .  A
C2866      H2879   1.083       .  S
C2867      C2868   1.403       .  A
C2867      H2880   1.084       .  S
C2868      C2869   1.412       .  A
C2868      C2871   1.494       .  S
C2869      C2870   1.408       .  A
C2869      H2881   1.081       .  S
C2870      H2882   1.083       .  S
C2871      C2872   1.350       .  D
C2871      H2883   1.086       .  S
C2872      C2873   1.494       .  S
C2872      H2884   1.084       .  S
C2873      C2874   1.406       .  A
C2873      C2878   1.409       .  A
C2874      C2875   1.404       .  A
C2874      H2885   1.083       .  S
C2875      C2876   1.407       .  A
C2875      H2886   1.083       .  S
C2876      C2877   1.406       .  A
C2877      C2878   1.398       .  A
C2877      H2887   1.083       .  S
C2878      H2888   1.081       .  S
C2889      C2890   1.406       .  A
C2889      C2894   1.407       .  A
C2890      C2891   1.395       .  A
C2890      H2903   1.083       .  S
C2891      C2892   1.402       .  A
C2891      H2904   1.083       .  S
C2892      C2893   1.411       .  A
C2892      C2895   1.491       .  S
C2893      C2894   1.406       .  A
C2893      H2905   1.081       .  S
C2894      H2906   1.083       .  S
C2895      C2896   1.347       .  D
C2895      H2907   1.086       .  S
C2896      C2897   1.492       .  S
C2896      H2908   1.085       .  S
C2897      C2898   1.404       .  A
C2897      C2902   1.409       .  A
C2898      C2899   1.402       .  A
C2898      H2909   1.083       .  S
C2899      C2900   1.407       .  A
C2899      H2910   1.083       .  S
C2900      C2901   1.405       .  A
C2901      C2902   1.399       .  A
C2901      H2911   1.083       .  S
C2902      H2912   1.082       .  S
C2913      C2914   1.404       .  A
C2913      C2918   1.408       .  A
C2914      C2915   1.395       .  A
C2914      H2927   1.083       .  S
C2915      C2916   1.403       .  A
C2915      H2928   1.083       .  S
C2916      C2917   1.411       .  A
C2916      C2919   1.493       .  S
C2917      C2918   1.407       .  A
C2917      H2929   1.081       .  S
C2918      H2930   1.083       .  S
C2919      C2920   1.351       .  D
C2919      H2931   1.084       .  S
C2920      C2921   1.496       .  S
C2920      H2932   1.084       .  S
C2921      C2922   1.406       .  A
C2921      C2926   1.409       .  A
C2922      C2923   1.403       .  A
C2922      H2933   1.083       .  S
C2923      C2924   1.406       .  A
C2923      H2934   1.083       .  S
C2924      C2925   1.406       .  A
C2925      C2926   1.399       .  A
C2925      H2935   1.083       .  S
C2926      H2936   1.081       .  S
C2937      C2938   1.405       .  A
C2937      C2942   1.407       .  A
C2938      C2939   1.395       .  A
C2938      H2951   1.083       .  S
C2939      C2940   1.402       .  A
C2939      H2952   1.084       .  S
C2940      C2941   1.409       .  A
C2940      C2943   1.489       .  S
C2941      C2942   1.403       .  A
C2941      H2953   1.081       .  S
C2942      H2954   1.083       .  S
C2943      C2944   1.349   1_554  D
C2943      H2955   1.085   1_554  S
C2944      C2945   1.492       .  S
C2944      H2956   1.085       .  S
C2945      C2946   1.404       .  A
C2945      C2950   1.409       .  A
C2946      C2947   1.401       .  A
C2946      H2957   1.083       .  S
C2947      C2948   1.407       .  A
C2947      H2958   1.083       .  S
C2948      C2949   1.406       .  A
C2949      C2950   1.398       .  A
C2949      H2959   1.083       .  S
C2950      H2960   1.081       .  S
C2961      C2962   1.404       .  A
C2961      C2966   1.405       .  A
C2962      C2963   1.403       .  A
C2962      H2975   1.083       .  S
C2963      C2964   1.405       .  A
C2963      H2976   1.083       .  S
C2964      C2965   1.406       .  A
C2964      C2967   1.486       .  S
C2965      C2966   1.398       .  A
C2965      H2977   1.083       .  S
C2966      H2978   1.083       .  S
C2967      C2968   1.347       .  D
C2967      H2979   1.087       .  S
C2968      C2969   1.487       .  S
C2968      H2980   1.086       .  S
C2969      C2970   1.406       .  A
C2969      C2974   1.406       .  A
C2970      C2971   1.404       .  A
C2970      H2981   1.083       .  S
C2971      C2972   1.404       .  A
C2971      H2982   1.083       .  S
C2972      C2973   1.404       .  A
C2973      C2974   1.397       .  A
C2973      H2983   1.083       .  S
C2974      H2984   1.083       .  S
C2985      C2986   1.404       .  A
C2985      C2990   1.405       .  A
C2986      C2987   1.396       .  A
C2986      H2999   1.083       .  S
C2987      C2988   1.403       .  A
C2987      H3000   1.084       .  S
C2988      C2989   1.407       .  A
C2988      C2991   1.480       .  S
C2989      C2990   1.395       .  A
C2989      H3001   1.081       .  S
C2990      H3002   1.084       .  S
C2991      C2992   1.345       .  D
C2991      H3003   1.086       .  S
C2992      C2993   1.480       .  S
C2992      H3004   1.085       .  S
C2993      C2994   1.402       .  A
C2993      C2998   1.406       .  A
C2994      C2995   1.398       .  A
C2994      H3005   1.083       .  S
C2995      C2996   1.406       .  A
C2995      H3006   1.083       .  S
C2996      C2997   1.403       .  A
C2997      C2998   1.392       .  A
C2997      H3007   1.083       .  S
C2998      H3008   1.082       .  S
