geometry optimzed in LAMMPS
_audit_creation_date              2020-11-30 
_audit_creation_method            'lammps2cif' 
_symmetry_space_group_name_H-M    'P1' 
_symmetry_Int_Tables_number       1 
_symmetry_cell_setting            triclinic 
loop_ 
_symmetry_equiv_pos_as_xyz 
  x,y,z 
_cell_length_a                    41.57887186885296 
_cell_length_b                    41.59507763297311 
_cell_length_c                    48.06867257684194 
_cell_angle_alpha                 90.15477318922859 
_cell_angle_beta                  89.65039036451732 
_cell_angle_gamma                 120.00501821775009 
loop_ 
_atom_site_label 
_atom_site_type_symbol 
_atom_site_fract_x 
_atom_site_fract_y 
_atom_site_fract_z 
_atom_site_charge 
Zr1        Zr  0.41701019  0.18806479  0.27020927     2.17510
O2          O  0.46872648  0.24942785  0.28100237    -0.51030
O3          O  0.37565096  0.21291361  0.26316892    -0.74240
O4          O  0.43238492  0.22075710  0.22447368    -0.81020
O5          O  0.38793083  0.14252617  0.34273690    -0.82770
O6          O  0.46674603  0.20031364  0.20387295    -0.78390
O7          O  0.42348758  0.19872609  0.32193277    -0.90030
O8          O  0.33220885  0.17311703  0.23283267    -0.75990
O9          O  0.39277953  0.15796240  0.22686685    -0.85480
O10         O  0.35440203  0.14003919  0.28001376    -0.85170
O11         O  0.45763313  0.16639962  0.25269310    -0.71930
O12         O  0.41874828  0.14278667  0.29946091    -0.84060
Zr13       Zr  0.37498979  0.04675954  0.25011832     2.26420
Zr14       Zr  0.43108834  0.13431436  0.20957206     2.06270
Zr15       Zr  0.35694863  0.09408528  0.30881638     2.10050
Zr16       Zr  0.33055073  0.11312832  0.23574892     1.78760
O17         O  0.36052009  0.06239031  0.35023702    -0.92870
O18         O  0.31749686  0.12083134  0.18763161    -0.40670
O19         O  0.33350814  0.06798556  0.26470254    -0.77310
O20         O  0.36789448  0.08753929  0.21838727    -0.95990
O21         O  0.43692338  0.09374643  0.24101578    -0.89300
O22         O  0.39897979  0.07379225  0.29394458    -0.92140
C23         C  0.34969752  0.20472509  0.24531676     1.01610
C24         C  0.41083342  0.17752712  0.34386552     1.14540
C25         C  0.44985973  0.21857658  0.20288474     1.05320
O26         O  0.41352801  0.14236626  0.16302925    -0.94290
O27         O  0.41964419  0.08309472  0.17874163    -0.90040
O28         O  0.38430218  0.03111414  0.20429752    -0.83180
C29         C  0.40033649  0.04777128  0.18187075     1.11960
O30         O  0.50322347  0.17680065  0.31229979    -0.96270
Zr31       Zr  0.46069800  0.12352427  0.28423407     1.88940
O32         O  0.41828640  0.02471575  0.25954577    -0.72920
O33         O  0.49190467  0.14628979  0.19385713    -0.52180
O34         O  0.52105211  0.15193083  0.26102332    -0.96860
O35         O  0.47358848  0.10722166  0.32988686    -0.54080
O36         O  0.47189158  0.07304696  0.27577670    -0.73430
C37         C  0.45229207  0.03959770  0.26731120     0.98910
O38         O  0.32627836  0.98544987  0.23506673    -0.62250
O39         O  0.30567995  0.09742459  0.33072762    -0.57060
O40         O  0.33322841  0.00109708  0.28274379    -0.93740
O41         O  0.30538915  0.02946222  0.30362916    -0.92170
O42         O  0.27524863  0.09946568  0.26253350    -0.92520
O43         O  0.27617874  0.05930604  0.21650152    -0.91310
C44         C  0.30533056  0.00015359  0.29477788     1.17750
H45         H  0.33994494  0.14963423  0.28874995     0.33700
H46         H  0.35647089  0.07456639  0.20136393     0.44550
H47         H  0.39893291  0.05574641  0.30656828     0.38070
H48         H  0.48240036  0.18719228  0.25002087     0.34550
H49         H  0.29463827  0.12261396  0.18860765     0.26340
H50         H  0.49400988  0.15517686  0.17447914     0.32280
H51         H  0.53489088  0.14158486  0.27060479     0.38190
H52         H  0.26466776  0.11296441  0.25276364     0.32650
H53         H  0.29973699  0.08196257  0.34767800     0.31520
H54         H  0.35019587  0.07064816  0.36545443     0.33210
H55         H  0.49764965  0.10798661  0.32758896     0.32170
H56         H  0.28176567  0.03885859  0.21800760     0.36170
H57         H  0.31534443  0.98966719  0.21819516     0.28900
H58         H  0.46067542  0.26679779  0.27436101     0.33140
H59         H  0.52694051  0.17661511  0.31250881     0.35990
H60         H  0.31665832  0.12315636  0.33777840     0.28600
H61         H  0.33894043  0.97197003  0.22858362     0.41470
H62         H  0.39096205  0.14429164  0.16579851     0.31530
H63         H  0.33722500  0.14618362  0.18247412     0.39140
H64         H  0.45527995  0.08055697  0.33237952     0.30990
H65         H  0.50995103  0.16844662  0.20440534     0.31060
H66         H  0.48864449  0.25286805  0.26786881     0.31320
Zr67       Zr  0.56583617  0.80753442  0.25777233     2.17510
O68         O  0.51379203  0.74756893  0.24425677    -0.51030
O69         O  0.60961679  0.78586126  0.26384867    -0.74240
O70         O  0.56857278  0.79807479  0.20698625    -0.81020
O71         O  0.51188132  0.78865620  0.31968656    -0.82770
O72         O  0.60278839  0.85510306  0.18672577    -0.78390
O73         O  0.54289546  0.76504699  0.29862556    -0.90030
O74         O  0.65424385  0.82613836  0.29324567    -0.75990
O75         O  0.62676295  0.85875084  0.24815648    -0.85480
O76         O  0.59189284  0.83533644  0.30183795    -0.85170
O77         O  0.55832631  0.85143696  0.22977274    -0.71930
O78         O  0.52427885  0.82582310  0.27823311    -0.84060
Zr79       Zr  0.60164632  0.94577233  0.28272934     2.26420
Zr80       Zr  0.61969123  0.90351755  0.22096730     2.06270
Zr81       Zr  0.55155343  0.85480302  0.32176567     2.10050
Zr82       Zr  0.65196885  0.88415018  0.29248706     1.78760
O83         O  0.49370004  0.83591309  0.34681678    -0.92870
O84         O  0.70753906  0.89994826  0.26518590    -0.40670
O85         O  0.61239656  0.90558802  0.31237343    -0.77310
O86         O  0.64491759  0.92819799  0.26536453    -0.95990
O87         O  0.57645815  0.92047752  0.23880340    -0.89300
O88         O  0.54169932  0.89514896  0.29293391    -0.92140
C89         C  0.63657891  0.79460300  0.28073571     1.01610
C90         C  0.52665306  0.76839148  0.32049510     1.14540
C91         C  0.58260561  0.81959913  0.18552083     1.05320
O92         O  0.67628836  0.91344354  0.19798862    -0.94290
O93         O  0.66427501  0.97175752  0.22022541    -0.90040
O94         O  0.64455024  0.99655843  0.25381854    -0.83180
C95         C  0.66676915  0.99966037  0.23410562     1.11960
O96         O  0.47019219  0.81399481  0.22413545    -0.96270
Zr97       Zr  0.51663091  0.86829786  0.24937014     1.88940
O98         O  0.56001919  0.96876652  0.27044148    -0.72920
O99         O  0.60171224  0.92553144  0.18031910    -0.52180
O100        O  0.50478459  0.88449821  0.20338752    -0.96860
O101        O  0.45691693  0.83985594  0.27356296    -0.54080
O102        O  0.50552117  0.91903405  0.25709660    -0.73430
C103        C  0.52555087  0.95319621  0.26380561     0.98910
O104        O  0.64938894  0.00145659  0.30588500    -0.62250
O105        O  0.57817552  0.84793743  0.36491370    -0.57060
O106        O  0.57998670  0.95660695  0.32564784    -0.93740
O107        O  0.55938945  0.90445736  0.35190299    -0.92170
O108        O  0.66442096  0.87702490  0.34085530    -0.92520
O109        O  0.70615434  0.93719807  0.31285554    -0.91310
C110        C  0.56989497  0.93881244  0.34848229     1.17750
H111        H  0.59530460  0.81941141  0.31448943     0.33700
H112        H  0.66955151  0.94949209  0.26428065     0.44550
H113        H  0.52580013  0.90251800  0.30230971     0.38070
H114        H  0.54567804  0.84053602  0.21261671     0.34550
H115        H  0.72343074  0.89523275  0.27784634     0.26340
H116        H  0.61812172  0.92579234  0.16520008     0.32280
H117        H  0.48294409  0.88778327  0.20590636     0.38190
H118        H  0.68228145  0.86786889  0.34000537     0.32650
H119        H  0.55680505  0.83292856  0.37734730     0.31520
H120        H  0.49889803  0.83260838  0.36634812     0.33210
H121        H  0.44362027  0.85182835  0.26556928     0.32170
H122        H  0.71323949  0.95796060  0.29968571     0.36170
H123        H  0.63788909  0.01685856  0.30990699     0.28900
H124        H  0.52501355  0.73504624  0.23379938     0.33140
H125        H  0.44927715  0.81845990  0.22075514     0.35990
H126        H  0.58893213  0.83201415  0.36066041     0.28600
H127        H  0.65282950  0.99302487  0.32430625     0.41470
H128        H  0.67786346  0.89103948  0.20240696     0.31530
H129        H  0.69937773  0.88012158  0.25100094     0.39140
H130        H  0.46274833  0.84942644  0.29283719     0.30990
H131        H  0.57674801  0.90486464  0.17545078     0.31060
H132        H  0.50022464  0.75340954  0.23014061     0.31320
Zr133      Zr  0.41736609  0.23395749  0.01907718     2.17510
O134        O  0.46846666  0.22441476  0.03227640    -0.51030
O135        O  0.37177462  0.16881378  0.01531823    -0.74240
O136        O  0.41638758  0.22416561  0.07014178    -0.81020
O137        O  0.47093738  0.26774741  0.45776393    -0.82770
O138        O  0.38336833  0.24821034  0.09049765    -0.78390
O139        O  0.43981572  0.21318317  0.47847469    -0.90030
O140        O  0.32814523  0.16280994  0.48456951    -0.75990
O141        O  0.35664410  0.22458550  0.02897450    -0.85480
O142        O  0.39072912  0.23429697  0.47494691    -0.85170
O143        O  0.42572093  0.28633973  0.04637039    -0.71930
O144        O  0.45869183  0.29296173  0.49759547    -0.84060
Zr145      Zr  0.38169439  0.33547209  0.49268591     2.26420
Zr146      Zr  0.36449025  0.27730904  0.05560450     2.06270
Zr147      Zr  0.43087227  0.29355047  0.45407872     2.10050
Zr148      Zr  0.33078770  0.22341162  0.48463364     1.78760
O149        O  0.48734585  0.32955826  0.42676589    -0.92870
O150        O  0.27538507  0.18508553  0.01246013    -0.40670
O151        O  0.37022747  0.28364819  0.46376232    -0.77310
O152        O  0.33847554  0.27544907  0.01128204    -0.95990
O153        O  0.40752096  0.33654675  0.03653333    -0.89300
O154        O  0.44160738  0.34470140  0.48236232    -0.92140
C155        C  0.34518068  0.14938334  0.99846625     1.01610
C156        C  0.45619359  0.23274393  0.45668800     1.14540
C157        C  0.40362704  0.23295930  0.09179668     1.05320
O158        O  0.30784637  0.23032911  0.07825172    -0.94290
O159        O  0.32117908  0.30261522  0.05636599    -0.90040
O160        O  0.34144861  0.34625043  0.02230440    -0.83180
C161        C  0.31935425  0.32819795  0.04229780     1.11960
O162        O  0.51575084  0.33661514  0.04793880    -0.96270
Zr163      Zr  0.46717450  0.34397324  0.02582371     1.88940
O164        O  0.42212688  0.40009549  0.50525238    -0.72920
O165        O  0.38168870  0.31790661  0.09602289    -0.52180
O166        O  0.48235999  0.37044434  0.07242345    -0.96860
O167        O  0.52475948  0.37780524  0.49920496    -0.54080
O168        O  0.47513185  0.40500890  0.02198510    -0.73430
C169        C  0.45547053  0.41914092  0.51436770     0.98910
O170        O  0.33382342  0.33998415  0.46667477    -0.62250
O171        O  0.40218428  0.25819124  0.41188217    -0.57060
O172        O  0.40467994  0.36922645  0.45051816    -0.93740
O173        O  0.42338603  0.33588217  0.42429440    -0.92170
O174        O  0.31722025  0.20201848  0.43664653    -0.92520
O175        O  0.27657909  0.22216475  0.46432936    -0.91310
C176        C  0.41379856  0.36048703  0.42762403     1.17750
H177        H  0.38711341  0.21445538  0.46266602     0.33700
H178        H  0.31399063  0.27246812  0.01269578     0.44550
H179        H  0.45763472  0.36793008  0.47305430     0.38070
H180        H  0.43899771  0.28894317  0.06332982     0.34550
H181        H  0.25938168  0.16389658  0.00023007     0.26340
H182        H  0.36504044  0.30199948  0.11109493     0.32280
H183        H  0.50396291  0.39568915  0.06984599     0.38190
H184        H  0.29900172  0.17514080  0.43799125     0.32650
H185        H  0.42285842  0.26437327  0.39874692     0.31520
H186        H  0.47980868  0.32279139  0.40715627     0.33210
H187        H  0.52391471  0.39898063  0.49063458     0.32170
H188        H  0.27430726  0.24199635  0.47396889     0.36170
H189        H  0.33315945  0.32895447  0.44825874     0.28900
H190        H  0.45669257  0.20051188  0.04245616     0.33140
H191        H  0.53747146  0.36196421  0.04944947     0.35990
H192        H  0.39204902  0.23172962  0.41649356     0.28600
H193        H  0.31000167  0.32171022  0.47545593     0.41470
H194        H  0.30818766  0.20685062  0.07587888     0.31530
H195        H  0.28359690  0.17408436  0.02706890     0.39140
H196        H  0.52183444  0.36128196  0.48338154     0.30990
H197        H  0.40660815  0.32240350  0.10124520     0.31060
H198        H  0.48233793  0.24350918  0.04658900     0.31320
Zr199      Zr  0.56861793  0.76467210  0.00604929     2.17510
O200        O  0.51707956  0.77466671  0.99554606    -0.51030
O201        O  0.61075316  0.83081591  0.01245945    -0.74240
O202        O  0.55568112  0.78490617  0.05147350    -0.81020
O203        O  0.59408935  0.74435317  0.43356344    -0.82770
O204        O  0.52002511  0.73078208  0.07234537    -0.78390
O205        O  0.56129702  0.76820503  0.45459191    -0.90030
O206        O  0.65546565  0.83425984  0.04135509    -0.75990
O207        O  0.59393253  0.75981826  0.04910179    -0.85480
O208        O  0.63032037  0.77701531  0.99510137    -0.85170
O209        O  0.52713940  0.70359265  0.02508505    -0.71930
O210        O  0.56444756  0.71589031  0.47733054    -0.84060
Zr211      Zr  0.60680135  0.66385050  0.02707926     2.26420
Zr212      Zr  0.55457826  0.69907080  0.06813445     2.06270
Zr213      Zr  0.62536532  0.72668806  0.46696926     2.10050
Zr214      Zr  0.65533712  0.77502727  0.03901147     1.78760
O215        O  0.62028643  0.69324458  0.42405290    -0.92870
O216        O  0.66970124  0.79600387  0.08705739    -0.40670
O217        O  0.65031959  0.72506493  0.01078071    -0.77310
O218        O  0.61674223  0.71343802  0.05790990    -0.95990
O219        O  0.54577907  0.65097359  0.03721926    -0.89300
O220        O  0.58195877  0.66580399  0.98343958    -0.92140
C221        C  0.63768275  0.84849436  0.02959312     1.01610
C222        C  0.57248609  0.75804287  0.43265713     1.14540
C223        C  0.53823506  0.76590782  0.07320586     1.05320
O224        O  0.57377765  0.72828499  0.11361180    -0.94290
O225        O  0.56691980  0.65931271  0.09866432    -0.90040
O226        O  0.59933605  0.63944287  0.07249462    -0.83180
C227        C  0.58492541  0.64185696  0.09526734     1.11960
O228        O  0.47956815  0.66843195  0.96667900    -0.96270
Zr229      Zr  0.52135488  0.65595298  0.99402528     1.88940
O230        O  0.56126539  0.59864581  0.02106381    -0.72920
O231        O  0.49446585  0.65283308  0.08684151    -0.52180
O232        O  0.46172803  0.62554267  0.01828261    -0.96860
O233        O  0.50547884  0.62538956  0.44875885    -0.54080
O234        O  0.50962101  0.59395076  0.00177986    -0.73430
C235        C  0.52790635  0.57963513  0.01201112     0.98910
O236        O  0.65496750  0.65347272  0.04645811    -0.62250
O237        O  0.67858215  0.78092764  0.44659568    -0.57060
O238        O  0.63823304  0.65103679  0.99068607    -0.93740
O239        O  0.67194609  0.70602066  0.46973522    -0.92170
O240        O  0.71029629  0.81505335  0.01137281    -0.92520
O241        O  0.70979078  0.77556089  0.05791515    -0.91310
C242        C  0.66798206  0.67503531  0.47870717     1.17750
H243        H  0.64486731  0.80066404  0.48590071     0.33700
H244        H  0.62863059  0.71205588  0.07469867     0.44550
H245        H  0.58044556  0.64688218  0.47094719     0.38070
H246        H  0.50268375  0.70040948  0.02786904     0.34550
H247        H  0.68932274  0.82243249  0.08576014     0.26340
H248        H  0.49233281  0.66341413  0.10477515     0.32280
H249        H  0.44706849  0.60140379  0.00870812     0.38190
H250        H  0.72162491  0.83941245  0.02088678     0.32650
H251        H  0.69032174  0.77063858  0.43420484     0.31520
H252        H  0.63668259  0.71265672  0.41062976     0.33210
H253        H  0.48125975  0.60250075  0.45173006     0.32170
H254        H  0.70281523  0.74906246  0.05866472     0.36170
H255        H  0.65088296  0.62983485  0.03832664     0.28900
H256        H  0.52569074  0.80047540  0.00160029     0.33140
H257        H  0.45516732  0.64527359  0.96721948     0.35990
H258        H  0.66782280  0.79160520  0.43378661     0.28600
H259        H  0.67863906  0.67293633  0.03824581     0.41470
H260        H  0.60011039  0.73492042  0.11523223     0.31530
H261        H  0.64754360  0.79669170  0.09387751     0.39140
H262        H  0.52320678  0.61639338  0.44569061     0.30990
H263        H  0.47602698  0.65408603  0.07464097     0.31060
H264        H  0.49751970  0.75904467  0.00918057     0.31320
Zr265      Zr  0.22546629  0.80713525  0.00529169     2.17510
O266        O  0.21328135  0.74505907  0.99366639    -0.51030
O267        O  0.15945476  0.78459102  0.00996168    -0.74240
O268        O  0.20378177  0.77314951  0.05043735    -0.81020
O269        O  0.25037978  0.85477170  0.43267673    -0.82770
O270        O  0.25741699  0.78959494  0.07089112    -0.78390
O271        O  0.22529506  0.79824860  0.45388770    -0.90030
O272        O  0.15602137  0.82318835  0.04178166    -0.75990
O273        O  0.22942321  0.83581351  0.04894782    -0.85480
O274        O  0.21390054  0.85705726  0.99500525    -0.85170
O275        O  0.28617121  0.82547858  0.02405741    -0.71930
O276        O  0.27512822  0.85242940  0.47756044    -0.84060
Zr277      Zr  0.32686233  0.94507431  0.02898780     2.26420
Zr278      Zr  0.28980431  0.85585722  0.06775727     2.06270
Zr279      Zr  0.26500841  0.90280559  0.46744183     2.10050
Zr280      Zr  0.21517688  0.88271573  0.03960725     1.78760
O281        O  0.29946597  0.93385616  0.42542086    -0.92870
O282        O  0.19362444  0.87673900  0.08757369    -0.40670
O283        O  0.26606629  0.92775181  0.01205837    -0.77310
O284        O  0.27637102  0.90445048  0.05892572    -0.95990
O285        O  0.33868539  0.89605418  0.03780064    -0.89300
O286        O  0.32541760  0.91966813  0.98455228    -0.92140
C287        C  0.14175767  0.79209961  0.02850514     1.01610
C288        C  0.23704420  0.81939189  0.43194712     1.14540
C289        C  0.22237046  0.77370556  0.07202689     1.05320
O290        O  0.26143516  0.84591370  0.11370934    -0.94290
O291        O  0.32837802  0.90748475  0.09842580    -0.90040
O292        O  0.35970919  0.95944027  0.07190338    -0.83180
C293        C  0.35178786  0.94214621  0.09500905     1.11960
O294        O  0.32336901  0.81479403  0.96599862    -0.96270
Zr295      Zr  0.33482667  0.86849258  0.99394433     1.88940
O296        O  0.39218267  0.96739422  0.02013263    -0.72920
O297        O  0.33547844  0.84114714  0.08590003    -0.52180
O298        O  0.36556077  0.83964470  0.01774025    -0.96860
O299        O  0.36523024  0.88367528  0.44849163    -0.54080
O300        O  0.39658772  0.91934969  0.00230184    -0.73430
C301        C  0.41110506  0.95258355  0.01152644     0.98910
O302        O  0.32863435  0.99791056  0.05264699    -0.62250
O303        O  0.21090712  0.90118377  0.44668804    -0.57060
O304        O  0.33978774  0.99077079  0.99390952    -0.93740
O305        O  0.28500201  0.96999306  0.47304359    -0.92170
O306        O  0.17499756  0.89739687  0.01236632    -0.92520
O307        O  0.21489769  0.93696658  0.05846150    -0.91310
C308        C  0.31537812  0.99680433  0.48316626     1.17750
H309        H  0.19044150  0.84841976  0.48569132     0.33700
H310        H  0.27774619  0.91725274  0.07605198     0.44550
H311        H  0.34465160  0.93751211  0.47245816     0.38070
H312        H  0.28904703  0.80398231  0.02632550     0.34550
H313        H  0.16716693  0.86977072  0.08615405     0.26340
H314        H  0.32467937  0.82827538  0.10373695     0.32280
H315        H  0.39014119  0.85006244  0.00854228     0.38190
H316        H  0.15064161  0.88432414  0.02199834     0.32650
H317        H  0.22065368  0.92601903  0.43817643     0.31520
H318        H  0.28026615  0.93115613  0.41203477     0.33210
H319        H  0.38872651  0.88352969  0.45134862     0.32170
H320        H  0.24102255  0.95410485  0.06373526     0.36170
H321        H  0.30900133  0.00092440  0.04356552     0.28900
H322        H  0.18673072  0.72860061  0.99836367     0.33140
H323        H  0.34672409  0.81392110  0.96644575     0.35990
H324        H  0.20446550  0.88407884  0.43066535     0.28600
H325        H  0.31855417  0.98891908  0.07153393     0.41470
H326        H  0.25276887  0.86411516  0.11507077     0.31530
H327        H  0.19296949  0.85406187  0.09456515     0.39140
H328        H  0.37314526  0.91011718  0.44534048     0.30990
H329        H  0.33405608  0.82149708  0.07343440     0.31060
H330        H  0.22685986  0.73942479  0.00791029     0.31320
Zr331      Zr  0.75670854  0.18814967  0.01672236     2.17510
O332        O  0.76432451  0.24848711  0.02883764    -0.51030
O333        O  0.82233569  0.21124526  0.00933634    -0.74240
O334        O  0.77013450  0.20088138  0.06721130    -0.81020
O335        O  0.71586021  0.20038986  0.45514735    -0.82770
O336        O  0.74982101  0.14529352  0.08904278    -0.78390
O337        O  0.77146197  0.22803479  0.47468573    -0.90030
O338        O  0.82820665  0.16925649  0.48268805    -0.75990
O339        O  0.76842384  0.13875171  0.02796381    -0.85480
O340        O  0.75545226  0.15852220  0.47345212    -0.85170
O341        O  0.70655831  0.14519757  0.04637197    -0.71930
O342        O  0.69637558  0.16683075  0.49657794    -0.84060
Zr343      Zr  0.65699489  0.04783942  0.49726417     2.26420
Zr344      Zr  0.71779155  0.09475806  0.05682280     2.06270
Zr345      Zr  0.69466085  0.13517132  0.45419269     2.10050
Zr346      Zr  0.76832164  0.11113144  0.48454239     1.78760
O347        O  0.65240014  0.14805414  0.42794851    -0.92870
O348        O  0.80959842  0.09734854  0.01128424    -0.40670
O349        O  0.70662373  0.08631694  0.46578092    -0.77310
O350        O  0.71862712  0.06780805  0.01338029    -0.95990
O351        O  0.65703825  0.07580973  0.03991471    -0.89300
O352        O  0.64534616  0.09600387  0.48467985    -0.92140
C353        C  0.84136078  0.20164868  0.99380597     1.01610
C354        C  0.75043497  0.22323472  0.45359130     1.14540
C355        C  0.76422505  0.18069645  0.08925951     1.05320
O356        O  0.76482862  0.08725528  0.08111157    -0.94290
O357        O  0.69610808  0.02691504  0.05896381    -0.90040
O358        O  0.64631856  0.00080890  0.03049095    -0.83180
C359        C  0.66839666  0.99835307  0.04752769     1.11960
O360        O  0.65558976  0.18251425  0.04906518    -0.96270
Zr361      Zr  0.64750011  0.12601004  0.02710130     1.88940
O362        O  0.59143498  0.02553375  0.50651960    -0.72920
O363        O  0.67788232  0.07429908  0.09786127    -0.52180
O364        O  0.62068449  0.11464703  0.07371607    -0.96860
O365        O  0.61401547  0.15026487  0.50106342    -0.54080
O366        O  0.58612156  0.07353683  0.02309531    -0.73430
C367        C  0.57206197  0.03984155  0.51520399     0.98910
O368        O  0.64790302  0.98762387  0.48258088    -0.62250
O369        O  0.73119491  0.14431403  0.41194148    -0.57060
O370        O  0.63207776  0.03249151  0.45217329    -0.93740
O371        O  0.65366639  0.08366430  0.42476034    -0.92170
O372        O  0.78682006  0.11669081  0.43582576    -0.92520
O373        O  0.76970482  0.05702419  0.46659014    -0.91310
C374        C  0.63493294  0.04867804  0.42918141     1.17750
H375        H  0.77445412  0.17480589  0.46052147     0.33700
H376        H  0.72257346  0.04691572  0.01488428     0.44550
H377        H  0.62182163  0.08684297  0.47539392     0.38070
H378        H  0.70494324  0.15690908  0.06322088     0.34550
H379        H  0.83089908  0.10373786  0.99868560     0.26340
H380        H  0.69418200  0.07499767  0.11306288     0.32280
H381        H  0.59570604  0.11167283  0.07126436     0.38190
H382        H  0.81366542  0.12497254  0.43622133     0.32650
H383        H  0.71869800  0.15074430  0.39733510     0.31520
H384        H  0.65735345  0.14551406  0.40812609     0.33210
H385        H  0.58846340  0.13726262  0.50877576     0.32170
H386        H  0.74340646  0.03878519  0.46257152     0.36170
H387        H  0.62287373  0.97391165  0.47420144     0.28900
H388        H  0.78857837  0.26193083  0.03838605     0.33140
H389        H  0.63025553  0.17863857  0.05172401     0.35990
H390        H  0.75538979  0.16713792  0.41466772     0.28600
H391        H  0.66551682  0.99305920  0.46697435     0.41470
H392        H  0.78880178  0.10816336  0.07454912     0.31530
H393        H  0.81991969  0.11665794  0.02591831     0.39140
H394        H  0.61149355  0.14013244  0.48203993     0.30990
H395        H  0.67331917  0.09500175  0.10207790     0.31060
H396        H  0.74558029  0.24326239  0.04356313     0.31320
Zr397      Zr  0.80274965  0.23552587  0.26849231     2.17510
O398        O  0.74111907  0.22599684  0.27849096    -0.51030
O399        O  0.77792000  0.16928362  0.26258875    -0.74240
O400        O  0.77052566  0.21645820  0.22297095    -0.81020
O401        O  0.84610641  0.25384946  0.34129205    -0.82770
O402        O  0.79079241  0.27120002  0.20280438    -0.78390
O403        O  0.79050924  0.23256026  0.31975699    -0.90030
O404        O  0.81895293  0.16455694  0.23377729    -0.75990
O405        O  0.83368941  0.24036440  0.22551774    -0.85480
O406        O  0.85072795  0.22126491  0.27916187    -0.85170
O407        O  0.82429474  0.29733232  0.25020529    -0.71930
O408        O  0.84730284  0.28300867  0.29781167    -0.84060
Zr409      Zr  0.94359419  0.33432560  0.24882203     2.26420
Zr410      Zr  0.85700810  0.30166776  0.20727624     2.06270
Zr411      Zr  0.89581356  0.27015064  0.30816569     2.10050
Zr412      Zr  0.87873462  0.22373597  0.23526335     1.78760
O413        O  0.92345150  0.30113206  0.35186935    -0.92870
O414        O  0.87203084  0.20320635  0.18705820    -0.40670
O415        O  0.92337451  0.27230121  0.26442658    -0.77310
O416        O  0.90411886  0.28626236  0.21686272    -0.95990
O417        O  0.89621808  0.34822041  0.23898831    -0.89300
O418        O  0.91562797  0.33178027  0.29239489    -0.92140
C419        C  0.78689827  0.15088424  0.24580021     1.01610
C420        C  0.81107773  0.24202390  0.34192016     1.14540
C421        C  0.77341211  0.23609556  0.20139867     1.05320
O422        O  0.85253920  0.27080722  0.16313638    -0.94290
O423        O  0.90926297  0.35106290  0.18139273    -0.90040
O424        O  0.96135830  0.36758863  0.20612766    -0.83180
C425        C  0.94466365  0.37014763  0.18484139     1.11960
O426        O  0.81222433  0.33226530  0.30965902    -0.96270
Zr427      Zr  0.86622664  0.34362589  0.28191637     1.88940
O428        O  0.96688079  0.39977017  0.25907630    -0.72920
O429        O  0.84052128  0.34307486  0.18356191    -0.52180
O430        O  0.83812162  0.37525055  0.25832739    -0.96860
O431        O  0.88201568  0.37433835  0.32712506    -0.54080
O432        O  0.91731928  0.40489879  0.27300896    -0.73430
C433        C  0.95134778  0.41877194  0.26578151     0.98910
O434        O  0.99953196  0.33837444  0.22858190    -0.62250
O435        O  0.89160307  0.21405884  0.32748191    -0.57060
O436        O  0.98777004  0.34451779  0.28418241    -0.93740
O437        O  0.96287320  0.28979910  0.30659603    -0.92170
O438        O  0.89348912  0.18343799  0.26234039    -0.92520
O439        O  0.93188437  0.22170884  0.21580287    -0.91310
C440        C  0.99113290  0.32006362  0.29769697     1.17750
H441        H  0.84096424  0.19734704  0.28804081     0.33700
H442        H  0.91787604  0.28844169  0.20002438     0.44550
H443        H  0.93314337  0.35004312  0.30514494     0.38070
H444        H  0.80351628  0.30125321  0.24743200     0.34550
H445        H  0.86253884  0.17615293  0.18813382     0.26340
H446        H  0.82671070  0.32923321  0.16683078     0.32280
H447        H  0.84874268  0.39973253  0.26759042     0.38190
H448        H  0.87951961  0.15885458  0.25325448     0.32650
H449        H  0.91662989  0.22223896  0.33503430     0.31520
H450        H  0.92563750  0.28228764  0.36294334     0.33210
H451        H  0.88054109  0.39716545  0.32444882     0.32170
H452        H  0.95270712  0.24757085  0.21726075     0.36170
H453        H  0.00287454  0.31942967  0.23850136     0.28900
H454        H  0.72391856  0.20020742  0.27243354     0.33140
H455        H  0.81187203  0.35588917  0.30956359     0.35990
H456        H  0.87551405  0.20829101  0.34413950     0.28600
H457        H  0.99239506  0.32813339  0.20955618     0.41470
H458        H  0.87852537  0.28109398  0.15672020     0.31530
H459        H  0.85085579  0.20527028  0.17993427     0.39140
H460        H  0.90883700  0.38345257  0.32953513     0.30990
H461        H  0.82167731  0.34406770  0.19565752     0.31060
H462        H  0.73766901  0.24168450  0.26473933     0.31320
Zr463      Zr  0.17930573  0.76552460  0.25791917     2.17510
O464        O  0.24078270  0.77608832  0.24554269    -0.51030
O465        O  0.20073467  0.83113288  0.26571697    -0.74240
O466        O  0.19098361  0.77667948  0.20673337    -0.81020
O467        O  0.19189945  0.72380622  0.31922849    -0.82770
O468        O  0.13496847  0.75478160  0.18526182    -0.78390
O469        O  0.21900148  0.78002862  0.30054764    -0.90030
O470        O  0.15502752  0.83573541  0.28846599    -0.75990
O471        O  0.12830491  0.77464087  0.24604640    -0.85480
O472        O  0.14870712  0.76369659  0.30084618    -0.85170
O473        O  0.13677171  0.71381639  0.22921365    -0.71930
O474        O  0.15923955  0.70552627  0.27849746    -0.84060
Zr475      Zr  0.03882510  0.66193320  0.27833250     2.26420
Zr476      Zr  0.08499660  0.72278101  0.21797085     2.06270
Zr477      Zr  0.12686848  0.70331575  0.32066051     2.10050
Zr478      Zr  0.09961381  0.77396553  0.28913816     1.78760
O479        O  0.13715763  0.65880593  0.34634776    -0.92870
O480        O  0.08141032  0.81124630  0.26151847    -0.40670
O481        O  0.07685632  0.71292228  0.30855332    -0.77310
O482        O  0.05691212  0.72290715  0.26124328    -0.95990
O483        O  0.06789479  0.66281588  0.23586831    -0.89300
O484        O  0.08869105  0.65312041  0.29115353    -0.92140
C485        C  0.18825330  0.84968301  0.27884472     1.01610
C486        C  0.21501676  0.75822689  0.32107551     1.14540
C487        C  0.17039127  0.76954800  0.18476150     1.05320
O488        O  0.07583866  0.76890428  0.19376331    -0.94290
O489        O  0.01658375  0.69851623  0.21636687    -0.90040
O490        O  0.99754151  0.64562978  0.23948624    -0.83180
C491        C  0.99025455  0.66812112  0.22695853     1.11960
O492        O  0.17458499  0.66318238  0.22515683    -0.96270
Zr493      Zr  0.11901311  0.65512866  0.24892307     1.88940
O494        O  0.01830719  0.59648364  0.27090759    -0.72920
O495        O  0.06548875  0.68293421  0.17707087    -0.52180
O496        O  0.10481727  0.62657265  0.20298150    -0.96860
O497        O  0.14690864  0.62497896  0.27481139    -0.54080
O498        O  0.06853382  0.59282811  0.25642355    -0.73430
C499        C  0.03448575  0.57819410  0.26389210     0.98910
O500        O  0.98052835  0.65607959  0.29493803    -0.62250
O501        O  0.13642707  0.74040067  0.36246951    -0.57060
O502        O  0.02336311  0.63428894  0.32286966    -0.93740
O503        O  0.07457959  0.66402937  0.35026930    -0.92170
O504        O  0.10662531  0.79412289  0.33744304    -0.92520
O505        O  0.04515790  0.77358548  0.30848062    -0.91310
C506        C  0.04008913  0.64135402  0.34607409     1.17750
H507        H  0.16470104  0.78307147  0.31355936     0.33700
H508        H  0.03553123  0.72605465  0.25963299     0.44550
H509        H  0.08059408  0.63013623  0.30105463     0.38070
H510        H  0.14862244  0.71206928  0.21246450     0.34550
H511        H  0.08723121  0.83298646  0.27336638     0.26340
H512        H  0.06591617  0.69905932  0.16178880     0.32280
H513        H  0.10162670  0.60156338  0.20579888     0.38190
H514        H  0.11385733  0.82067956  0.33651607     0.32650
H515        H  0.14081733  0.72691939  0.37754259     0.31520
H516        H  0.13130189  0.66093541  0.36602952     0.33210
H517        H  0.13599476  0.59976625  0.26673384     0.32170
H518        H  0.02718079  0.74702660  0.31195444     0.36170
H519        H  0.98553912  0.66594329  0.31411988     0.28900
H520        H  0.25292020  0.79985737  0.23518852     0.33140
H521        H  0.17039915  0.63782917  0.22205281     0.35990
H522        H  0.16027887  0.76374060  0.35997187     0.28600
H523        H  0.97786597  0.67505468  0.28446674     0.41470
H524        H  0.09815597  0.79298444  0.19813684     0.31530
H525        H  0.09993721  0.82152273  0.24625439     0.39140
H526        H  0.13588787  0.62094711  0.29368299     0.30990
H527        H  0.08654597  0.67887659  0.17290558     0.31060
H528        H  0.23631114  0.75689386  0.23145799     0.31320
Zr529      Zr  0.79944373  0.57081953  0.02002413     2.17510
O530        O  0.73920777  0.51911290  0.03378599    -0.51030
O531        O  0.77775079  0.61467543  0.01353058    -0.74240
O532        O  0.79011803  0.57284344  0.07116548    -0.81020
O533        O  0.78103332  0.51663686  0.45803061    -0.82770
O534        O  0.84718131  0.60694043  0.09109694    -0.78390
O535        O  0.75711426  0.54737862  0.47909446    -0.90030
O536        O  0.81788770  0.65898952  0.48364576    -0.75990
O537        O  0.85049914  0.63186592  0.02925548    -0.85480
O538        O  0.82706501  0.59687969  0.47572762    -0.85170
O539        O  0.84370042  0.56356769  0.04775993    -0.71930
O540        O  0.81830708  0.52967973  0.49972456    -0.84060
Zr541      Zr  0.93791388  0.60729169  0.49426381     2.26420
Zr542      Zr  0.89548099  0.62509293  0.05632768     2.06270
Zr543      Zr  0.84706251  0.55688629  0.45592704     2.10050
Zr544      Zr  0.87594383  0.65704833  0.48474538     1.78760
O545        O  0.83036374  0.49952844  0.43112152    -0.92870
O546        O  0.89142735  0.71273229  0.01150173    -0.40670
O547        O  0.89752884  0.61774765  0.46491084    -0.77310
O548        O  0.92030523  0.65039978  0.01179883    -0.95990
O549        O  0.91286595  0.58227480  0.03840036    -0.89300
O550        O  0.88753764  0.54715356  0.48465604    -0.92140
C551        C  0.78638793  0.64145203  0.99634646     1.01610
C552        C  0.76031047  0.53090718  0.45731349     1.14540
C553        C  0.81169652  0.58650433  0.09260346     1.05320
O554        O  0.90438242  0.68209636  0.07770469    -0.94290
O555        O  0.96384825  0.66913812  0.05682535    -0.90040
O556        O  0.98803538  0.64726581  0.02444084    -0.83180
C557        C  0.99159874  0.67046264  0.04339742     1.11960
O558        O  0.80620238  0.47441043  0.05258966    -0.96270
Zr559      Zr  0.86110381  0.52221455  0.02845629     1.88940
O560        O  0.96144488  0.56578346  0.50502386    -0.72920
O561        O  0.91821634  0.60909876  0.09758945    -0.52180
O562        O  0.87490823  0.51072602  0.07536334    -0.96860
O563        O  0.83510629  0.46292062  0.50412453    -0.54080
O564        O  0.91370222  0.51312574  0.02340028    -0.73430
C565        C  0.94693263  0.53257570  0.51451829     0.98910
O566        O  0.99123947  0.65585229  0.46904927    -0.62250
O567        O  0.83891810  0.58307895  0.41295434    -0.57060
O568        O  0.94904555  0.58504237  0.45178135    -0.93740
O569        O  0.89783706  0.56822821  0.42540115    -0.92170
O570        O  0.86930996  0.66879111  0.43608918    -0.92520
O571        O  0.92867673  0.71190289  0.46450439    -0.91310
C572        C  0.93190088  0.57751662  0.42874526     1.17750
H573        H  0.81097060  0.60005800  0.46307833     0.33700
H574        H  0.94163329  0.67501463  0.01287157     0.44550
H575        H  0.89509093  0.53132801  0.47541461     0.38070
H576        H  0.83286675  0.55068689  0.06491357     0.34550
H577        H  0.88564565  0.72798389  0.99894967     0.26340
H578        H  0.91739926  0.62521191  0.11244924     0.32280
H579        H  0.87945159  0.48961240  0.07345843     0.38190
H580        H  0.85961189  0.68621695  0.43653785     0.32650
H581        H  0.82775417  0.56220955  0.39961173     0.31520
H582        H  0.83160881  0.50587751  0.41116163     0.33210
H583        H  0.85117163  0.45259954  0.50922653     0.32170
H584        H  0.95094759  0.71215720  0.47193912     0.36170
H585        H  0.98163313  0.65676111  0.45045071     0.28900
H586        H  0.72692168  0.53047385  0.04437842     0.33140
H587        H  0.81109808  0.45378068  0.05601178     0.35990
H588        H  0.81951592  0.58966469  0.41659477     0.28600
H589        H  0.99623724  0.67946403  0.47782967     0.41470
H590        H  0.88033777  0.68127280  0.07538168     0.31530
H591        H  0.87214105  0.70439730  0.02621826     0.39140
H592        H  0.84048763  0.46939839  0.48418708     0.30990
H593        H  0.89825027  0.58378341  0.10259818     0.31060
H594        H  0.74486358  0.50526868  0.04780258     0.31320
Zr595      Zr  0.18150981  0.42637938  0.00748828     2.17510
O596        O  0.24257743  0.47917657  0.99726187    -0.51030
O597        O  0.20652563  0.38498108  0.01232704    -0.74240
O598        O  0.21478472  0.43925525  0.05260651    -0.81020
O599        O  0.13687857  0.40085524  0.43494964    -0.82770
O600        O  0.19484333  0.47368201  0.07339018    -0.78390
O601        O  0.19281140  0.43478925  0.45618549    -0.90030
O602        O  0.16727171  0.34045785  0.04249606    -0.75990
O603        O  0.15172387  0.39999282  0.05065116    -0.85480
O604        O  0.13363069  0.36409690  0.99683349    -0.85170
O605        O  0.15958026  0.46605935  0.02661414    -0.71930
O606        O  0.13619707  0.42925353  0.47887397    -0.84060
Zr607      Zr  0.04089684  0.38252667  0.02999517     2.26420
Zr608      Zr  0.12852126  0.43763752  0.06993494     2.06270
Zr609      Zr  0.08776121  0.36770694  0.46872699     2.10050
Zr610      Zr  0.10686679  0.33817378  0.04093433     1.78760
O611        O  0.05919756  0.37268317  0.42609323    -0.92870
O612        O  0.11322745  0.32300315  0.08875288    -0.40670
O613        O  0.06153744  0.34176028  0.01265594    -0.77310
O614        O  0.08169100  0.37478759  0.06085804    -0.95990
O615        O  0.08791119  0.44420436  0.03927957    -0.89300
O616        O  0.06714955  0.40826345  0.98606260    -0.92140
C617        C  0.19879445  0.35866071  0.02978721     1.01610
C618        C  0.17200847  0.42375199  0.43414737     1.14540
C619        C  0.21217898  0.45590407  0.07444266     1.05320
O620        O  0.13269069  0.40968057  0.11322472    -0.94290
O621        O  0.07720078  0.43574331  0.09644493    -0.90040
O622        O  0.02413444  0.39766644  0.07346292    -0.83180
C623        C  0.04163399  0.41838902  0.09401838     1.11960
O624        O  0.17111731  0.51674134  0.97124717    -0.96270
Zr625      Zr  0.11630795  0.46978347  0.99596864     1.88940
O626        O  0.01687518  0.42439705  0.02233569    -0.72920
O627        O  0.14594647  0.49514501  0.09484337    -0.52180
O628        O  0.13872802  0.52757539  0.02176337    -0.96860
O629        O  0.10375734  0.48419306  0.44952005    -0.54080
O630        O  0.06234081  0.47646148  0.00131052    -0.73430
C631        C  0.02993238  0.45699053  0.01193126     0.98910
O632        O  0.98598559  0.33006372  0.05068930    -0.62250
O633        O  0.09112003  0.31587209  0.44810430    -0.57060
O634        O  0.99556884  0.34746619  0.99548997    -0.93740
O635        O  0.02102101  0.31967150  0.47062804    -0.92170
O636        O  0.09418888  0.28407902  0.01314824    -0.92520
O637        O  0.05360558  0.28218269  0.05918139    -0.91310
C638        C  0.99262309  0.32065116  0.48058872     1.17750
H639        H  0.14333031  0.35017893  0.48749421     0.33700
H640        H  0.06864209  0.36322115  0.07791410     0.44550
H641        H  0.04884112  0.40856134  0.47386779     0.38070
H642        H  0.18017578  0.49090407  0.02929344     0.34550
H643        H  0.12263446  0.30539867  0.08718864     0.26340
H644        H  0.16079319  0.49518536  0.11088019     0.32280
H645        H  0.12793387  0.54096164  0.01211586     0.38190
H646        H  0.10792899  0.27347361  0.02252452     0.32650
H647        H  0.06878047  0.30312040  0.43626262     0.31520
H648        H  0.05875616  0.35350892  0.41360098     0.33210
H649        H  0.09972331  0.50553668  0.45218797     0.32170
H650        H  0.03312562  0.28783154  0.05924327     0.36170
H651        H  0.98280338  0.30792320  0.04053828     0.28900
H652        H  0.26016126  0.47068892  0.00237625     0.33140
H653        H  0.16895605  0.53939158  0.97120364     0.35990
H654        H  0.11213043  0.32737818  0.43476309     0.28600
H655        H  0.99374695  0.32717128  0.06951652     0.41470
H656        H  0.13522219  0.42755755  0.12787702     0.31530
H657        H  0.13442051  0.34600061  0.09621771     0.39140
H658        H  0.07899732  0.46330404  0.44453781     0.30990
H659        H  0.16393503  0.51521349  0.08251347     0.31060
H660        H  0.24624853  0.49784549  0.01158892     0.31320
Zr661      Zr  0.22692436  0.42196744  0.25884761     2.17510
O662        O  0.22006079  0.47518446  0.24715374    -0.51030
O663        O  0.16117642  0.37993712  0.26651514    -0.74240
O664        O  0.21385912  0.42181569  0.20831950    -0.81020
O665        O  0.26772068  0.47474003  0.32076907    -0.82770
O666        O  0.23401114  0.38648303  0.18611340    -0.78390
O667        O  0.21210920  0.44690547  0.30124551    -0.90030
O668        O  0.15520727  0.33230473  0.29322383    -0.75990
O669        O  0.21457383  0.36064511  0.24724489    -0.85480
O670        O  0.22796950  0.39340961  0.30191627    -0.85170
O671        O  0.27696464  0.42858223  0.22915864    -0.71930
O672        O  0.28748762  0.46057001  0.27877375    -0.84060
Zr673      Zr  0.32558057  0.37981593  0.27817537     2.26420
Zr674      Zr  0.26496037  0.36666736  0.21826454     2.06270
Zr675      Zr  0.28880394  0.43062154  0.32111602     2.10050
Zr676      Zr  0.21446652  0.33292837  0.29049815     1.78760
O677        O  0.33213125  0.48623370  0.34658596    -0.92870
O678        O  0.17269525  0.27850000  0.26323317    -0.40670
O679        O  0.27603922  0.36960268  0.30935692    -0.77310
O680        O  0.26404625  0.33852544  0.26156824    -0.95990
O681        O  0.32574542  0.40777459  0.23553471    -0.89300
O682        O  0.33761294  0.43989716  0.29063984    -0.92140
C683        C  0.14222527  0.35166411  0.28231136     1.01610
C684        C  0.23317630  0.46318234  0.32234879     1.14540
C685        C  0.21990086  0.40776350  0.18610564     1.05320
O686        O  0.21644803  0.31133839  0.19554613    -0.94290
O687        O  0.28805701  0.32163079  0.21602461    -0.90040
O688        O  0.34088736  0.35230304  0.24022618    -0.83180
C689        C  0.31801027  0.32420427  0.22610724     1.11960
O690        O  0.33001799  0.51751904  0.22684968    -0.96270
Zr691      Zr  0.33631650  0.46785389  0.24824394     1.88940
O692        O  0.39170545  0.42336413  0.27225234    -0.72920
O693        O  0.30295577  0.38404307  0.17623013    -0.52180
O694        O  0.36173326  0.48152173  0.20117378    -0.96860
O695        O  0.37200478  0.52555021  0.27412483    -0.54080
O696        O  0.39730178  0.47533262  0.25224734    -0.73430
C697        C  0.41097624  0.45637117  0.26236596     0.98910
O698        O  0.32930135  0.32646222  0.29509635    -0.62250
O699        O  0.25309148  0.40406867  0.36374836    -0.57060
O700        O  0.35181968  0.38955593  0.32278281    -0.93740
O701        O  0.33017902  0.41975653  0.34983534    -0.92170
O702        O  0.19665161  0.32000281  0.33932126    -0.92520
O703        O  0.21122436  0.27662534  0.30837462    -0.91310
C704        C  0.34902284  0.40349855  0.34560731     1.17750
H705        H  0.20915512  0.39085079  0.31500835     0.33700
H706        H  0.26003278  0.31367985  0.25971054     0.44550
H707        H  0.36101683  0.45428560  0.30007541     0.38070
H708        H  0.27882735  0.44210583  0.21242751     0.34550
H709        H  0.15147137  0.26349201  0.27584758     0.26340
H710        H  0.28561741  0.36880982  0.16134065     0.32280
H711        H  0.38728796  0.50273816  0.20323184     0.38190
H712        H  0.16946968  0.30280868  0.33914701     0.32650
H713        H  0.26588411  0.42328309  0.37817677     0.31520
H714        H  0.32831240  0.47896313  0.36645180     0.33210
H715        H  0.38803677  0.52104490  0.28677925     0.32170
H716        H  0.23667677  0.28072615  0.30600314     0.36170
H717        H  0.31335720  0.31829730  0.31190776     0.28900
H718        H  0.19592471  0.46469281  0.23747586     0.33140
H719        H  0.35568617  0.53815184  0.22373555     0.35990
H720        H  0.22887767  0.40271286  0.36118370     0.28600
H721        H  0.31516245  0.30616752  0.28171054     0.41470
H722        H  0.19310893  0.31120965  0.20001612     0.31530
H723        H  0.16235321  0.28786938  0.24896304     0.39140
H724        H  0.35366103  0.52686331  0.28660269     0.30990
H725        H  0.30864921  0.40970270  0.17219980     0.31060
H726        H  0.23900418  0.48870641  0.23257133     0.31320
Zr727      Zr  0.75510028  0.57140251  0.27197867     2.17510
O728        O  0.76644027  0.52097855  0.28345292    -0.51030
O729        O  0.82110319  0.61514209  0.26713794    -0.74240
O730        O  0.77600398  0.55784329  0.22685253    -0.81020
O731        O  0.73333937  0.59789206  0.34373463    -0.82770
O732        O  0.72212064  0.52109621  0.20639322    -0.78390
O733        O  0.75702414  0.56448073  0.32359801    -0.90030
O734        O  0.82448236  0.65502403  0.23374664    -0.75990
O735        O  0.75048762  0.59492083  0.22806839    -0.85480
O736        O  0.76766619  0.63351877  0.28109592    -0.85170
O737        O  0.69375620  0.52945586  0.25390147    -0.71930
O738        O  0.70620366  0.56828363  0.30016601    -0.84060
Zr739      Zr  0.65455018  0.60953143  0.24795860     2.26420
Zr740      Zr  0.68966087  0.55498760  0.20988866     2.06270
Zr741      Zr  0.71737701  0.62950410  0.30886426     2.10050
Zr742      Zr  0.76594422  0.65666682  0.23621052     1.78760
O743        O  0.68497856  0.62693565  0.35189714    -0.92870
O744        O  0.78683305  0.66940909  0.18795690    -0.40670
O745        O  0.71594257  0.65256117  0.26413245    -0.77310
O746        O  0.70419878  0.61765831  0.21764620    -0.95990
O747        O  0.64150033  0.54799944  0.24013311    -0.89300
O748        O  0.65633162  0.58673126  0.29262907    -0.92140
C749        C  0.83888722  0.63909446  0.24789384     1.01610
C750        C  0.74647153  0.57578302  0.34525326     1.14540
C751        C  0.75724726  0.53976198  0.20527753     1.05320
O752        O  0.71669892  0.57110474  0.16343407    -0.94290
O753        O  0.65198740  0.56861139  0.17879315    -0.90040
O754        O  0.62146088  0.59047155  0.20507072    -0.83180
C755        C  0.62913885  0.58064180  0.18200295     1.11960
O756        O  0.65493699  0.47967688  0.30936335    -0.96270
Zr757      Zr  0.64592317  0.52545090  0.28430454     1.88940
O758        O  0.58934927  0.56750375  0.25847564    -0.72920
O759        O  0.64255122  0.49404230  0.19348005    -0.52180
O760        O  0.61070209  0.46633025  0.26016960    -0.96860
O761        O  0.62131486  0.51329135  0.33166628    -0.54080
O762        O  0.58440769  0.51650396  0.27967700    -0.73430
C763        C  0.57041223  0.53500999  0.26926270     0.98910
O764        O  0.65047543  0.65916113  0.22409050    -0.62250
O765        O  0.77240559  0.68296782  0.32783078    -0.57060
O766        O  0.64442185  0.64767591  0.27995331    -0.93740
O767        O  0.69679280  0.67606532  0.30551123    -0.92170
O768        O  0.80740782  0.71238192  0.26228959    -0.92520
O769        O  0.76667522  0.71087325  0.21646792    -0.91310
C770        C  0.66765337  0.67467004  0.29489464     1.17750
H771        H  0.79123699  0.64849104  0.29019207     0.33700
H772        H  0.70278667  0.62872367  0.20039632     0.44550
H773        H  0.63758135  0.58640943  0.30477866     0.38070
H774        H  0.69039983  0.50486236  0.25175782     0.34550
H775        H  0.81279616  0.69015606  0.18890713     0.26340
H776        H  0.65173154  0.49151631  0.17500750     0.32280
H777        H  0.58687035  0.45295424  0.27046534     0.38190
H778        H  0.83156930  0.72278006  0.25245613     0.32650
H779        H  0.76333336  0.69922061  0.33529667     0.31520
H780        H  0.70371782  0.64767096  0.36326565     0.33210
H781        H  0.59560807  0.49223941  0.32994952     0.32170
H782        H  0.74013602  0.70315440  0.21411951     0.36170
H783        H  0.66873695  0.68236719  0.23346797     0.28900
H784        H  0.79225359  0.52982872  0.27716757     0.33140
H785        H  0.62999312  0.45734709  0.31100421     0.35990
H786        H  0.77868934  0.67339247  0.34453741     0.28600
H787        H  0.66159755  0.66102304  0.20546547     0.41470
H788        H  0.72833807  0.59844437  0.16239459     0.31530
H789        H  0.78909738  0.64777144  0.18213856     0.39140
H790        H  0.61829403  0.53473826  0.33663891     0.30990
H791        H  0.64520083  0.47621713  0.20549209     0.31060
H792        H  0.75086234  0.50091877  0.27024513     0.31320
C793        C  0.47341734  0.50011107  0.24265668     0.23890
C794        C  0.45173238  0.47504421  0.26370584    -0.24210
C795        C  0.46927058  0.47099947  0.28725474     0.18800
C796        C  0.50791069  0.49146834  0.28955873     0.23840
C797        C  0.52958847  0.51645119  0.26842705    -0.24160
C798        C  0.51194363  0.52074883  0.24507353     0.18740
F799        F  0.53206621  0.54397394  0.22406153    -0.14120
F800        F  0.45731864  0.50420975  0.21945525    -0.16480
F801        F  0.52409765  0.48742105  0.31272032    -0.16480
F802        F  0.44896786  0.44836614  0.30853365    -0.14120
C803        C  0.21413909  0.41050856  0.10758797     0.23890
C804        C  0.21954186  0.44618098  0.10263317    -0.24210
C805        C  0.22348879  0.46877086  0.12582556     0.18800
C806        C  0.22145220  0.45572912  0.15311302     0.23840
C807        C  0.21501298  0.41957731  0.15792799    -0.24160
C808        C  0.21127113  0.39719895  0.13467328     0.18740
F809        F  0.20468622  0.36199024  0.13806852    -0.14120
F810        F  0.20973289  0.38743380  0.08623333    -0.16480
F811        F  0.22710304  0.47902146  0.17471646    -0.16480
F812        F  0.22926847  0.50361252  0.12207691    -0.14120
C813        C  0.24029637  0.47544815  0.37436693     0.23890
C814        C  0.21703806  0.46178170  0.35070945    -0.24210
C815        C  0.17864608  0.44024968  0.35537577     0.18800
C816        C  0.16428966  0.42909443  0.38228430     0.23840
C817        C  0.18795921  0.43880256  0.40575189    -0.24160
C818        C  0.22608938  0.46358467  0.40140327     0.18740
F819        F  0.25002683  0.47563881  0.42312147    -0.14120
F820        F  0.27733049  0.49892177  0.37140022    -0.16480
F821        F  0.12683907  0.40791956  0.38493001    -0.16480
F822        F  0.15468007  0.42839557  0.33377962    -0.14120
C823        C  0.97471923  0.50094536  0.48867885     0.23890
C824        C  0.96938149  0.51453121  0.01396004    -0.24210
C825        C  0.98231754  0.50751158  0.03878724     0.18800
C826        C  0.00115078  0.48754914  0.03823145     0.23840
C827        C  0.00686758  0.47430776  0.01285312    -0.24160
C828        C  0.99358241  0.48106902  0.48810141     0.18740
F829        F  0.99893009  0.46834799  0.46345467    -0.14120
F830        F  0.96096247  0.50628049  0.46469029    -0.16480
F831        F  0.01486016  0.48215630  0.06223975    -0.16480
F832        F  0.97706833  0.52038798  0.06339144    -0.14120
C833        C  0.75113867  0.53037508  0.37836024     0.23890
C834        C  0.74702994  0.56162022  0.37399366    -0.24210
C835        C  0.74065634  0.57807913  0.39771941     0.18800
C836        C  0.74087272  0.56540339  0.42466603     0.23840
C837        C  0.74783153  0.53607565  0.42920179    -0.24160
C838        C  0.75121985  0.51761441  0.40550141     0.18740
F839        F  0.75654102  0.48817102  0.40853542    -0.14120
F840        F  0.75560119  0.51228874  0.35645050    -0.16480
F841        F  0.73674267  0.58382728  0.44639874    -0.16480
F842        F  0.73544121  0.60766931  0.39523856    -0.14120
C843        C  0.75452775  0.52651862  0.15379745     0.23890
C844        C  0.77461639  0.54825983  0.17692394    -0.24210
C845        C  0.80680792  0.58254781  0.17168269     0.18800
C846        C  0.81731149  0.59580196  0.14449324     0.23840
C847        C  0.79649045  0.57479981  0.12137918    -0.24160
C848        C  0.76521451  0.53965513  0.12646184     0.18740
F849        F  0.74529660  0.51745760  0.10500852    -0.14120
F850        F  0.72365323  0.49283780  0.15762711    -0.16480
F851        F  0.84799866  0.62970685  0.14091761    -0.16480
F852        F  0.82751971  0.60438918  0.19289857    -0.14120
C853        C  0.99340371  0.64086489  0.37569126     0.23890
C854        C  0.01575464  0.62551383  0.36943381    -0.24210
C855        C  0.00821948  0.59149575  0.38079913     0.18800
C856        C  0.97842443  0.57325540  0.39920200     0.23840
C857        C  0.95543724  0.58829819  0.40467095    -0.24160
C858        C  0.96273573  0.62183172  0.39257381     0.18740
F859        F  0.94180614  0.63761276  0.39896956    -0.14120
F860        F  0.00116068  0.67422044  0.36501179    -0.16480
F861        F  0.97214898  0.54148538  0.41183370    -0.16480
F862        F  0.02931822  0.57614549  0.37389918    -0.14120
C863        C  0.93914002  0.68449006  0.21909021     0.23890
C864        C  0.95033667  0.65924010  0.22793344    -0.24210
C865        C  0.92361514  0.62677344  0.24195523     0.18800
C866        C  0.88841027  0.62110444  0.24863130     0.23840
C867        C  0.87753241  0.64692151  0.24090480    -0.24160
C868        C  0.90307354  0.67818804  0.22519204     0.18740
F869        F  0.89359235  0.70324025  0.21624738    -0.14120
F870        F  0.96326401  0.71575700  0.20510619    -0.16480
F871        F  0.86479352  0.58959256  0.26263859    -0.16480
F872        F  0.93162366  0.60040366  0.25035098    -0.14120
C873        C  0.03219884  0.42820020  0.14408926     0.23890
C874        C  0.01828572  0.41942393  0.11693737    -0.24210
C875        C  0.97981863  0.40475938  0.11275638     0.18800
C876        C  0.95526464  0.39204745  0.13529196     0.23840
C877        C  0.96894425  0.39474774  0.16233829    -0.24160
C878        C  0.00771708  0.41642999  0.16664187     0.18740
F879        F  0.02229821  0.42342493  0.19265017    -0.14120
F880        F  0.06921217  0.44469032  0.14908486    -0.16480
F881        F  0.91820036  0.37414143  0.13026060    -0.16480
F882        F  0.96552583  0.39961415  0.08671896    -0.14120
C883        C  0.03829321  0.29838853  0.30023333     0.23890
C884        C  0.02995329  0.32735261  0.30042158    -0.24210
C885        C  0.05944546  0.36407804  0.29701090     0.18800
C886        C  0.09520779  0.37137075  0.29068379     0.23840
C887        C  0.10353082  0.34250606  0.28928433    -0.24160
C888        C  0.07491178  0.30598894  0.29514118     0.18740
F889        F  0.08181057  0.27737295  0.29420581    -0.14120
F890        F  0.01076407  0.26257507  0.30309765    -0.16480
F891        F  0.12163945  0.40706929  0.28539328    -0.16480
F892        F  0.05338869  0.39326935  0.29837405    -0.14120
C893        C  0.95810569  0.47955503  0.25248660     0.23890
C894        C  0.97336210  0.45946939  0.26470457    -0.24210
C895        C  0.00863733  0.47863015  0.27684544     0.18800
C896        C  0.02834139  0.51742784  0.27688879     0.23840
C897        C  0.01299429  0.53747406  0.26473752    -0.24160
C898        C  0.97775969  0.51829559  0.25256841     0.18740
F899        F  0.96293282  0.53706670  0.23997876    -0.14120
F900        F  0.92444961  0.46157223  0.23989480    -0.16480
F901        F  0.06197374  0.53548074  0.28950371    -0.16480
F902        F  0.02335062  0.45982484  0.28953755    -0.14120
C903        C  0.74357311  0.22874781  0.40162444     0.23890
C904        C  0.76672416  0.23746470  0.42525908    -0.24210
C905        C  0.80490457  0.25250501  0.42060631     0.18800
C906        C  0.81899082  0.25467366  0.39377287     0.23840
C907        C  0.79526979  0.24166471  0.37027387    -0.24160
C908        C  0.75751899  0.23024206  0.37457093     0.18740
F909        F  0.73372278  0.21954889  0.35279544    -0.14120
F910        F  0.70688596  0.21701066  0.40465690    -0.16480
F911        F  0.85623110  0.26891686  0.39128960    -0.16480
F912        F  0.82886467  0.26352216  0.44217223    -0.14120
C913        C  0.77332588  0.17838483  0.14053782     0.23890
C914        C  0.76968664  0.19734221  0.11753972    -0.24210
C915        C  0.76392360  0.22743140  0.12273264     0.18800
C916        C  0.76226907  0.23839450  0.15014461     0.23840
C917        C  0.76594404  0.21933380  0.17307537    -0.24160
C918        C  0.77090983  0.18883259  0.16776371     0.18740
F919        F  0.77539629  0.16998746  0.18889089    -0.14120
F920        F  0.77935102  0.14943378  0.13674867    -0.16480
F921        F  0.75715599  0.26784177  0.15426697    -0.16480
F922        F  0.75855484  0.24549489  0.10138245    -0.14120
C923        C  0.88859721  0.26805902  0.48538920     0.23890
C924        C  0.88021386  0.23089237  0.48733509    -0.24210
C925        C  0.90911466  0.22297207  0.98277819     0.18800
C926        C  0.94589743  0.25192531  0.97819928     0.23840
C927        C  0.95406610  0.28909352  0.47717590    -0.24160
C928        C  0.92453658  0.29639608  0.47948881     0.18740
F929        F  0.93079780  0.33166963  0.47760656    -0.14120
F930        F  0.86208603  0.27746416  0.48990249    -0.16480
F931        F  0.97364046  0.24374394  0.97681738    -0.16480
F932        F  0.90222978  0.18752517  0.98465775    -0.14120
C933        C  0.47429596  0.95950132  0.00380751     0.23890
C934        C  0.45231139  0.97478757  0.01270781    -0.24210
C935        C  0.47026171  0.01115800  0.02341440     0.18800
C936        C  0.50889418  0.03181142  0.02475478     0.23840
C937        C  0.53092267  0.01679065  0.01537189    -0.24160
C938        C  0.51293923  0.98019245  0.50513211     0.18740
F939        F  0.53264512  0.96421025  0.49601051    -0.14120
F940        F  0.45863161  0.92437167  0.99368563    -0.16480
F941        F  0.52446196  0.06678655  0.03518660    -0.16480
F942        F  0.45064002  0.02716069  0.03270057    -0.14120
C943        C  0.21438384  0.76490716  0.15075235     0.23890
C944        C  0.18627108  0.77355392  0.15624748    -0.24210
C945        C  0.16739916  0.77766080  0.13342611     0.18800
C946        C  0.17633889  0.77342516  0.10608954     0.23840
C947        C  0.20533888  0.76621009  0.10040719    -0.24160
C948        C  0.22387279  0.76139985  0.12320688     0.18740
F949        F  0.25182491  0.75401290  0.11880211    -0.14120
F950        F  0.23189522  0.75859460  0.17198437    -0.16480
F951        F  0.15764615  0.77842168  0.08517956    -0.16480
F952        F  0.13992644  0.78585180  0.13754174    -0.14120
C953        C  0.25681305  0.82601392  0.38101167     0.23890
C954        C  0.23708199  0.80298069  0.40398327    -0.24210
C955        C  0.21907644  0.76436062  0.39984693     0.18800
C956        C  0.21681637  0.74961483  0.37313911     0.23840
C957        C  0.23085261  0.77294380  0.34947705    -0.24160
C958        C  0.25421034  0.81093634  0.35431334     0.18740
F959        F  0.27560448  0.83321303  0.33340711    -0.14120
F960        F  0.27884771  0.86325623  0.38417581    -0.16480
F961        F  0.19916791  0.71222369  0.37048407    -0.16480
F962        F  0.20231446  0.74055127  0.42136636    -0.14120
C963        C  0.07460725  0.76870691  0.04349883     0.23890
C964        C  0.10346589  0.76177473  0.03603458    -0.24210
C965        C  0.09589797  0.72476660  0.03642786     0.18800
C966        C  0.06014310  0.69541931  0.04208099     0.23840
C967        C  0.03040917  0.70185890  0.04713670    -0.24160
C968        C  0.03831572  0.73899966  0.04873554     0.18740
F969        F  0.01046355  0.74650472  0.05316989    -0.14120
F970        F  0.08093269  0.80402809  0.04406979    -0.16480
F971        F  0.05417843  0.66019848  0.04121692    -0.16480
F972        F  0.12324339  0.71674845  0.03111656    -0.14120
C973        C  0.63178847  0.63786612  0.12270759     0.23890
C974        C  0.59404560  0.62615793  0.11890730    -0.24210
C975        C  0.56691210  0.59632653  0.13443812     0.18800
C976        C  0.57782209  0.57877117  0.15401994     0.23840
C977        C  0.61571182  0.59051927  0.15746436    -0.24160
C978        C  0.64247360  0.61987041  0.14147827     0.18740
F979        F  0.67928912  0.63289627  0.14549079    -0.14120
F980        F  0.65848464  0.66718689  0.10819018    -0.16480
F981        F  0.55168713  0.55042718  0.16950705    -0.16480
F982        F  0.53028855  0.58386838  0.13022672    -0.14120
C983        C  0.73650511  0.69434366  0.47522853     0.23890
C984        C  0.69892553  0.66642941  0.47797683    -0.24210
C985        C  0.69107499  0.63018722  0.98498962     0.18800
C986        C  0.71939892  0.62285694  0.99147187     0.23840
C987        C  0.75694836  0.65092221  0.48981468    -0.24160
C988        C  0.76522736  0.68651875  0.48070236     0.18740
F989        F  0.80105546  0.71419971  0.47825575    -0.14120
F990        F  0.74556797  0.72955417  0.46847607    -0.16480
F991        F  0.70968941  0.58767745  0.99903363    -0.16480
F992        F  0.65555469  0.60149041  0.98647268    -0.14120
C993        C  0.61788122  0.89413393  0.04349667     0.23890
C994        C  0.64687761  0.88689481  0.03762883    -0.24210
C995        C  0.68377797  0.91620211  0.04032788     0.18800
C996        C  0.69134624  0.95252079  0.04660099     0.23840
C997        C  0.66213224  0.95999651  0.05095498    -0.24160
C998        C  0.62539624  0.92996157  0.05034106     0.18740
F999        F  0.59640763  0.93579489  0.05474988    -0.14120
F1000       F  0.58191954  0.86641032  0.04238722    -0.16480
F1001       F  0.72700979  0.98081189  0.54592868    -0.16480
F1002       F  0.71243626  0.91022894  0.53501407    -0.14120
C1003       C  0.22187191  0.31470221  0.04420435     0.23890
C1004       C  0.22913705  0.35050451  0.03659672    -0.24210
C1005       C  0.26638225  0.37955012  0.03617488     0.18800
C1006       C  0.29550470  0.37266193  0.04121851     0.23840
C1007       C  0.28857144  0.33643381  0.04659798    -0.24160
C1008       C  0.25131156  0.30768198  0.04893898     0.18740
F1009       F  0.24336187  0.27227321  0.05357162    -0.14120
F1010       F  0.18639210  0.28602583  0.04544490    -0.16480
F1011       F  0.33094380  0.40143808  0.03943789    -0.16480
F1012       F  0.27487615  0.41495097  0.03062910    -0.14120
C1013       C  0.35185782  0.35768191  0.37388461     0.23890
C1014       C  0.36561634  0.39538350  0.36859293    -0.24210
C1015       C  0.39864300  0.42252459  0.38079519     0.18800
C1016       C  0.41737830  0.41152225  0.39900728     0.23840
C1017       C  0.40393796  0.37351772  0.40338968    -0.24160
C1018       C  0.37155471  0.34674513  0.39034965     0.18740
F1019       F  0.35702093  0.30995407  0.39577928    -0.14120
F1020       F  0.31915804  0.33136509  0.36283932    -0.16480
F1021       F  0.44789565  0.43746828  0.41266713    -0.16480
F1022       F  0.41259711  0.45903249  0.37488850    -0.14120
C1023       C  0.45291863  0.47801028  0.00959385     0.23890
C1024       C  0.47327990  0.46016602  0.01547062    -0.24210
C1025       C  0.51158740  0.48217163  0.02123471     0.18800
C1026       C  0.52914062  0.52075118  0.02033807     0.23840
C1027       C  0.50902116  0.53859058  0.01368186    -0.24160
C1028       C  0.47050809  0.51667094  0.00874975     0.18740
F1029       F  0.44945892  0.53242185  0.00317587    -0.14120
F1030       F  0.41585795  0.45823420  0.50452549    -0.16480
F1031       F  0.56617173  0.54043889  0.02549565    -0.16480
F1032       F  0.53274506  0.46664133  0.02717495    -0.14120
C1033       C  0.30719152  0.08487999  0.47616633     0.23890
C1034       C  0.33545805  0.10963194  0.49440091    -0.24210
C1035       C  0.35717335  0.09681259  0.00762199     0.18800
C1036       C  0.35156345  0.06144420  0.00259498     0.23960
C1037       C  0.32269517  0.03603688  0.48508657    -0.24160
C1038       C  0.30055814  0.04834969  0.47189229     0.18740
F1039       F  0.27282897  0.02533077  0.45458850    -0.14120
F1040       F  0.28597097  0.09588141  0.46235367    -0.16480
F1041       F  0.37477753  0.05232822  0.01567359    -0.16480
F1042       F  0.38473885  0.11856770  0.02556187    -0.14120
C1043       C  0.56697473  0.98766283  0.37573315     0.23890
C1044       C  0.57923075  0.96190622  0.37265297    -0.24210
C1045       C  0.61072009  0.96678902  0.38664290     0.18800
C1046       C  0.63084702  0.99793790  0.40263352     0.23840
C1047       C  0.61836652  0.02327644  0.40646762    -0.24160
C1048       C  0.58613645  0.01807598  0.39337379     0.18740
F1049       F  0.57330409  0.04191799  0.39790034    -0.14120
F1050       F  0.53730614  0.98367493  0.36119427    -0.16480
F1051       F  0.66265902  0.00342101  0.41474546    -0.16480
F1052       F  0.62415397  0.94329086  0.38251478    -0.14120
C1053       C  0.76467570  0.08256537  0.23667836     0.23890
C1054       C  0.75730919  0.11208090  0.23897346    -0.24210
C1055       C  0.72058083  0.10435678  0.23483705     0.18800
C1056       C  0.69169240  0.06797370  0.23028933     0.23840
C1057       C  0.69848291  0.03805617  0.22974400    -0.24160
C1058       C  0.73548708  0.04585046  0.23231900     0.18740
F1059       F  0.74296407  0.01761555  0.23308480    -0.14120
F1060       F  0.79965108  0.08882830  0.24058845    -0.16480
F1061       F  0.65647757  0.06165648  0.22775128    -0.16480
F1062       F  0.71242515  0.13215020  0.23555051    -0.14120
C1063       C  0.52454130  0.75725894  0.39935237     0.23890
C1064       C  0.55903835  0.75955299  0.40405110    -0.24210
C1065       C  0.57944301  0.75891260  0.38058549     0.18800
C1066       C  0.56648922  0.75713286  0.35355673     0.23840
C1067       C  0.53340050  0.75749971  0.34863283    -0.24160
C1068       C  0.51194971  0.75637977  0.37199635     0.18740
F1069       F  0.47924674  0.75566252  0.36836647    -0.14120
F1070       F  0.50290623  0.75578201  0.42112658    -0.16480
F1071       F  0.58834879  0.75826959  0.33218030    -0.16480
F1072       F  0.61309760  0.76140718  0.38353572    -0.14120
C1073       C  0.58243027  0.81329796  0.10686890     0.23890
C1074       C  0.54682994  0.78320393  0.10134210    -0.24210
C1075       C  0.52333852  0.76437204  0.12413727     0.18800
C1076       C  0.53558991  0.77470464  0.15158593     0.23840
C1077       C  0.57166552  0.80416446  0.15697756    -0.24160
C1078       C  0.59474331  0.82344931  0.13418014     0.18740
F1079       F  0.62973819  0.85213427  0.13827780    -0.14120
F1080       F  0.60650700  0.83171420  0.08590813    -0.16480
F1081       F  0.51165035  0.75653921  0.17281512    -0.16480
F1082       F  0.48862812  0.73529934  0.11985066    -0.14120
C1083       C  0.61665292  0.72775480  0.28803263     0.23890
C1084       C  0.64564417  0.76496388  0.28724877    -0.24210
C1085       C  0.68193460  0.77267432  0.29347388     0.18800
C1086       C  0.68929866  0.74348553  0.29824578     0.23840
C1087       C  0.66030236  0.70618224  0.29760127    -0.24160
C1088       C  0.62373291  0.69905406  0.29370556     0.18740
F1089       F  0.59452312  0.66376590  0.29424958    -0.14120
F1090       F  0.58093141  0.71883423  0.28337435    -0.16480
F1091       F  0.72497540  0.75164161  0.30166372    -0.16480
F1092       F  0.71055193  0.80821362  0.29336850    -0.14120
C1093       C  0.34031954  0.97329685  0.13293190     0.23890
C1094       C  0.36559645  0.96568060  0.11935640    -0.24210
C1095       C  0.40378370  0.98716778  0.12494319     0.18800
C1096       C  0.41635789  0.01563033  0.14479351     0.23840
C1097       C  0.39076047  0.02332175  0.15797455    -0.24160
C1098       C  0.35286380  0.00226062  0.15170358     0.18740
F1099       F  0.32787703  0.00983809  0.16400676    -0.14120
F1100       F  0.30356125  0.95402693  0.12668419    -0.16480
F1101       F  0.45290327  0.03496611  0.15150313    -0.16480
F1102       F  0.42851008  0.98054086  0.11121606    -0.14120
C1103       C  0.24699051  0.89669594  0.30069597     0.23890
C1104       C  0.21535934  0.88902778  0.28541765    -0.24210
C1105       C  0.21091503  0.91882726  0.27672866     0.18800
C1106       C  0.23900934  0.95573158  0.28197206     0.23840
C1107       C  0.27148720  0.96311197  0.29636349    -0.24160
C1108       C  0.27469517  0.93312291  0.30617205     0.18740
F1109       F  0.30570262  0.93919311  0.31990402    -0.14120
F1110       F  0.25127396  0.86847514  0.30987164    -0.16480
F1111       F  0.23595879  0.98411208  0.27098125    -0.16480
F1112       F  0.18075168  0.91230102  0.26165075    -0.14120
C1113       C  0.50833412  0.03392299  0.25791757     0.23890
C1114       C  0.47074097  0.01728531  0.26602852    -0.24210
C1115       C  0.45139761  0.97957845  0.27325792     0.18800
C1116       C  0.46938028  0.95886324  0.27262532     0.23840
C1117       C  0.50699437  0.97546917  0.26451099    -0.24160
C1118       C  0.52631915  0.01318887  0.25721067     0.18740
F1119       F  0.56231088  0.02975811  0.24869249    -0.14120
F1120       F  0.52745324  0.07008885  0.24995689    -0.16480
F1121       F  0.45025848  0.92280061  0.28084260    -0.16480
F1122       F  0.41544670  0.96308168  0.28186274    -0.14120
C1123       C  0.45940838  0.22307673  0.15073298     0.23890
C1124       C  0.44343566  0.22950275  0.17468963    -0.24210
C1125       C  0.41559394  0.23874590  0.17075314     0.18800
C1126       C  0.40209086  0.23879145  0.14417024     0.23840
C1127       C  0.41614688  0.22971835  0.12032031    -0.24160
C1128       C  0.44560914  0.22261838  0.12407415     0.18740
F1129       F  0.46136300  0.21519372  0.10200038    -0.14120
F1130       F  0.48741055  0.21538738  0.15302908    -0.16480
F1131       F  0.37476447  0.24749034  0.14212770    -0.16480
F1132       F  0.40020986  0.24656410  0.19274299    -0.14120
C1133       C  0.41682806  0.18150391  0.42330117     0.23890
C1134       C  0.44952341  0.21529657  0.42839363    -0.24210
C1135       C  0.47077526  0.23605369  0.40512638     0.18800
C1136       C  0.45832221  0.22455701  0.37769194     0.23840
C1137       C  0.42411745  0.19210407  0.37273053    -0.24160
C1138       C  0.40392537  0.17056807  0.39613910     0.18740
F1139       F  0.37056092  0.13909963  0.39305188    -0.14120
F1140       F  0.39546001  0.16007513  0.44468429    -0.16480
F1141       F  0.47978416  0.24529848  0.35609213    -0.16480
F1142       F  0.50323821  0.26824844  0.40893453    -0.14120
C1143       C  0.30501807  0.22650934  0.22986967     0.23890
C1144       C  0.34091955  0.23449864  0.23784630    -0.24210
C1145       C  0.36955359  0.27186442  0.23766325     0.18800
C1146       C  0.36253385  0.30034915  0.23053658     0.23840
C1147       C  0.32618703  0.29290993  0.22462057    -0.24160
C1148       C  0.29760752  0.25540837  0.22372876     0.18740
F1149       F  0.26207561  0.24672421  0.21869722    -0.14120
F1150       F  0.27660644  0.19086922  0.22951885    -0.16480
F1151       F  0.39153854  0.33574262  0.23056228    -0.16480
F1152       F  0.40491273  0.28110594  0.24413396    -0.14120
Zr1153     Zr  0.41699784  0.18806866  0.77020167     2.17510
O1154       O  0.46871611  0.24943235  0.78099041    -0.51030
O1155       O  0.37563496  0.21291505  0.76316475    -0.74240
O1156       O  0.43235726  0.22075864  0.72446599    -0.81020
O1157       O  0.38793355  0.14253128  0.84273021    -0.82770
O1158       O  0.46671905  0.20032042  0.70385864    -0.78390
O1159       O  0.42348261  0.19873161  0.82192460    -0.90030
O1160       O  0.33219207  0.17311663  0.73282990    -0.75990
O1161       O  0.39276507  0.15796379  0.72686072    -0.85480
O1162       O  0.35439220  0.14004053  0.78000977    -0.85170
O1163       O  0.45762278  0.16640706  0.75268207    -0.71930
O1164       O  0.41874314  0.14279243  0.79945109    -0.84060
Zr1165     Zr  0.37498674  0.04676509  0.75011125     2.26420
Zr1166     Zr  0.43107560  0.13432000  0.70956233     2.06270
Zr1167     Zr  0.35694605  0.09408915  0.80881087     2.10050
Zr1168     Zr  0.33053837  0.11312856  0.73574555     1.78760
O1169       O  0.36052093  0.06239526  0.85023094    -0.92870
O1170       O  0.31748335  0.12083143  0.68762853    -0.40670
O1171       O  0.33350323  0.06798821  0.76469775    -0.77310
O1172       O  0.36788400  0.08754196  0.71838162    -0.95990
O1173       O  0.43691805  0.09375458  0.74100443    -0.89300
O1174       O  0.39897936  0.07379987  0.79393630    -0.92140
C1175       C  0.34968031  0.20472561  0.74531326     1.01610
C1176       C  0.41083440  0.17753280  0.84385776     1.14540
C1177       C  0.44982868  0.21857998  0.70287432     1.05320
O1178       O  0.41351277  0.14236436  0.66301842    -0.94290
O1179       O  0.41963079  0.08309922  0.67873210    -0.90040
O1180       O  0.38430234  0.03111869  0.70429179    -0.83180
C1181       C  0.40033014  0.04777553  0.68186333     1.11960
O1182       O  0.50322264  0.17681352  0.81228390    -0.96270
Zr1183     Zr  0.46069527  0.12353386  0.78422177     1.88940
O1184       O  0.41828454  0.02472230  0.75954020    -0.72920
O1185       O  0.49189604  0.14630585  0.69384903    -0.52180
O1186       O  0.52104669  0.15194009  0.76100709    -0.96860
O1187       O  0.47359139  0.10723787  0.82987511    -0.54080
O1188       O  0.47189061  0.07305598  0.77576727    -0.73430
C1189       C  0.45229084  0.03960516  0.76730461     0.98910
O1190       O  0.32627427  0.98545640  0.73505885    -0.62250
O1191       O  0.30567874  0.09742756  0.83072546    -0.57060
O1192       O  0.33322936  0.00110155  0.78273780    -0.93740
O1193       O  0.30538877  0.02946436  0.80362467    -0.92170
O1194       O  0.27523674  0.09946161  0.76253241    -0.92520
O1195       O  0.27616677  0.05930504  0.71649908    -0.91310
C1196       C  0.30533134  0.00015645  0.79477290     1.17750
H1197       H  0.33993470  0.14963434  0.78874708     0.33700
H1198       H  0.35645953  0.07456760  0.70135892     0.44550
H1199       H  0.39893507  0.05575516  0.80655982     0.38070
H1200       H  0.48238872  0.18720099  0.75000755     0.34550
H1201       H  0.29462506  0.12261454  0.68860500     0.26340
H1202       H  0.49399862  0.15518838  0.67446990     0.32280
H1203       H  0.53488714  0.14159549  0.77058794     0.38190
H1204       H  0.26465569  0.11296191  0.75276504     0.32650
H1205       H  0.29973367  0.08196093  0.84767346     0.31520
H1206       H  0.35019768  0.07065329  0.86544892     0.33210
H1207       H  0.49765203  0.10800197  0.82757618     0.32170
H1208       H  0.28175483  0.03885832  0.71800473     0.36170
H1209       H  0.31534168  0.98967452  0.71818687     0.28900
H1210       H  0.46066284  0.26680180  0.77435203     0.33140
H1211       H  0.52694019  0.17662895  0.81249177     0.35990
H1212       H  0.31665864  0.12315767  0.83778011     0.28600
H1213       H  0.33893564  0.97197561  0.72857635     0.41470
H1214       H  0.39093989  0.14427782  0.66578625     0.31530
H1215       H  0.33721174  0.14618353  0.68247082     0.39140
H1216       H  0.45528281  0.08057369  0.83237036     0.30990
H1217       H  0.50993934  0.16846671  0.70439503     0.31060
H1218       H  0.48863093  0.25287280  0.76785344     0.31320
Zr1219     Zr  0.56583262  0.80753291  0.75777820     2.17510
O1220       O  0.51378632  0.74756745  0.74426527    -0.51030
O1221       O  0.60961367  0.78585927  0.76385321    -0.74240
O1222       O  0.56856621  0.79807041  0.70699211    -0.81020
O1223       O  0.51188658  0.78865608  0.81970071    -0.82770
O1224       O  0.60277974  0.85509778  0.68672993    -0.78390
O1225       O  0.54289787  0.76504777  0.79863238    -0.90030
O1226       O  0.65424449  0.82613899  0.79324660    -0.75990
O1227       O  0.62675842  0.85874870  0.74815952    -0.85480
O1228       O  0.59189196  0.83533756  0.80184254    -0.85170
O1229       O  0.55831930  0.85143317  0.72977843    -0.71930
O1230       O  0.52427692  0.82582297  0.77824038    -0.84060
Zr1231     Zr  0.60164045  0.94577102  0.78273229     2.26420
Zr1232     Zr  0.61968340  0.90351338  0.72097049     2.06270
Zr1233     Zr  0.55155395  0.85480478  0.82177209     2.10050
Zr1234     Zr  0.65196696  0.88415027  0.79248900     1.78760
O1235       O  0.49369995  0.83593227  0.84681688    -0.92870
O1236       O  0.70753690  0.89995121  0.76518657    -0.40670
O1237       O  0.61239552  0.90558916  0.81237569    -0.77310
O1238       O  0.64491147  0.92819605  0.76536692    -0.95990
O1239       O  0.57645103  0.92047412  0.73880720    -0.89300
O1240       O  0.54169487  0.89514697  0.79293994    -0.92140
C1241       C  0.63657848  0.79460251  0.78073802     1.01610
C1242       C  0.52665899  0.76839146  0.82050441     1.14540
C1243       C  0.58259763  0.81959376  0.68552600     1.05320
O1244       O  0.67628009  0.91343966  0.69799084    -0.94290
O1245       O  0.66426672  0.97175266  0.72022677    -0.90040
O1246       O  0.64454350  0.99655516  0.75381992    -0.83180
C1247       C  0.66676151  0.99965590  0.73410664     1.11960
O1248       O  0.47018458  0.81398974  0.72414524    -0.96270
Zr1249     Zr  0.51662481  0.86829520  0.74937684     1.88940
O1250       O  0.56001615  0.96876771  0.77044036    -0.72920
O1251       O  0.60170276  0.92552514  0.68032196    -0.52180
O1252       O  0.50477851  0.88449377  0.70339358    -0.96860
O1253       O  0.45691069  0.83985516  0.77356933    -0.54080
O1254       O  0.50551571  0.91903320  0.75710241    -0.73430
C1255       C  0.52554671  0.95319696  0.76380737     0.98910
O1256       O  0.64938189  0.00145014  0.80589371    -0.62250
O1257       O  0.57816522  0.84793091  0.86492270    -0.57060
O1258       O  0.57996402  0.95660442  0.82564377    -0.93740
O1259       O  0.55942652  0.90447335  0.85191040    -0.92170
O1260       O  0.66441869  0.87702479  0.84085731    -0.92520
O1261       O  0.70615350  0.93719828  0.81285628    -0.91310
C1262       C  0.56991056  0.93882305  0.84848487     1.17750
H1263       H  0.59530570  0.81941403  0.81449443     0.33700
H1264       H  0.66954522  0.94949031  0.76428231     0.44550
H1265       H  0.52579488  0.90251478  0.80231601     0.38070
H1266       H  0.54567026  0.84053105  0.71262286     0.34550
H1267       H  0.72342887  0.89523467  0.77784594     0.26340
H1268       H  0.61811251  0.92578647  0.66520299     0.32280
H1269       H  0.48293883  0.88778024  0.70591225     0.38190
H1270       H  0.68227921  0.86786883  0.84000743     0.32650
H1271       H  0.55679165  0.83292087  0.87735341     0.31520
H1272       H  0.49888996  0.83261534  0.86634757     0.33210
H1273       H  0.44361407  0.85182683  0.76557431     0.32170
H1274       H  0.71323065  0.95796373  0.79969086     0.36170
H1275       H  0.63788352  0.01685388  0.80991394     0.28900
H1276       H  0.52500664  0.73504325  0.73380834     0.33140
H1277       H  0.44927147  0.81845678  0.72076158     0.35990
H1278       H  0.58892155  0.83200727  0.86066961     0.28600
H1279       H  0.65281608  0.99301513  0.82431558     0.41470
H1280       H  0.67785449  0.89103484  0.70240773     0.31530
H1281       H  0.69937546  0.88012581  0.75100055     0.39140
H1282       H  0.46274193  0.84942741  0.79284312     0.30990
H1283       H  0.57673886  0.90485760  0.67545383     0.31060
H1284       H  0.50021897  0.75340778  0.73014890     0.31320
Zr1285     Zr  0.41732444  0.23395619  0.51907837     2.17510
O1286       O  0.46842031  0.22441230  0.53228973    -0.51030
O1287       O  0.37172970  0.16881338  0.51532006    -0.74240
O1288       O  0.41632947  0.22416417  0.57014183    -0.81020
O1289       O  0.47095795  0.26775729  0.95775243    -0.82770
O1290       O  0.38332232  0.24822538  0.59049422    -0.78390
O1291       O  0.43985096  0.21319246  0.97846479    -0.90030
O1292       O  0.32817171  0.16280408  0.98458315    -0.75990
O1293       O  0.35660343  0.22459360  0.52896567    -0.85480
O1294       O  0.39075472  0.23429579  0.97495185    -0.85170
O1295       O  0.42567721  0.28634096  0.54636777    -0.71930
O1296       O  0.45871937  0.29296563  0.99759111    -0.84060
Zr1297     Zr  0.38170603  0.33546261  0.99270526     2.26420
Zr1298     Zr  0.36444759  0.27732043  0.55559146     2.06270
Zr1299     Zr  0.43088360  0.29355156  0.95408139     2.10050
Zr1300     Zr  0.33081336  0.22340372  0.98464877     1.78760
O1301       O  0.48734933  0.32957005  0.92676258    -0.92870
O1302       O  0.27535797  0.18509081  0.51244323    -0.40670
O1303       O  0.37023896  0.28364219  0.96377719    -0.77310
O1304       O  0.33845099  0.27546230  0.51126171    -0.95990
O1305       O  0.40749173  0.33655404  0.53652119    -0.89300
O1306       O  0.44161880  0.34470043  0.98236775    -0.92140
C1307       C  0.34514594  0.14938591  0.49845972     1.01610
C1308       C  0.45621923  0.23275426  0.95667635     1.14540
C1309       C  0.40357431  0.23296621  0.59179515     1.05320
O1310       O  0.30779111  0.23033991  0.57822445    -0.94290
O1311       O  0.32114922  0.30264701  0.55633388    -0.90040
O1312       O  0.34142655  0.34627047  0.52226316    -0.83180
C1313       C  0.31932931  0.32822761  0.54225745     1.11960
O1314       O  0.51570516  0.33659810  0.54795277    -0.96270
Zr1315     Zr  0.46714506  0.34397113  0.52582513     1.88940
O1316       O  0.42214311  0.40009011  0.00526189    -0.72920
O1317       O  0.38162503  0.31791184  0.59601242    -0.52180
O1318       O  0.48232118  0.37044202  0.57242527    -0.96860
O1319       O  0.52477837  0.37780941  0.99919169    -0.54080
O1320       O  0.47510980  0.40500909  0.52198359    -0.73430
C1321       C  0.45548912  0.41913837  0.01437246     0.98910
O1322       O  0.33381847  0.33997061  0.96671417    -0.62250
O1323       O  0.40219015  0.25819154  0.91188627    -0.57060
O1324       O  0.40465032  0.36920205  0.95052712    -0.93740
O1325       O  0.42337874  0.33587638  0.92430252    -0.92170
O1326       O  0.31724685  0.20201769  0.93665998    -0.92520
O1327       O  0.27658860  0.22214004  0.96436178    -0.91310
C1328       C  0.41377663  0.36047032  0.92763288     1.17750
H1329       H  0.38713778  0.21445513  0.96266949     0.33700
H1330       H  0.31396844  0.27248762  0.51267033     0.44550
H1331       H  0.45763783  0.36792953  0.97305730     0.38070
H1332       H  0.43895034  0.28894423  0.56332903     0.34550
H1333       H  0.25934845  0.16391139  0.50020760     0.26340
H1334       H  0.36497738  0.30199930  0.61108266     0.32280
H1335       H  0.50392900  0.39568426  0.56984975     0.38190
H1336       H  0.29903320  0.17513852  0.93800276     0.32650
H1337       H  0.42286236  0.26437623  0.89874844     0.31520
H1338       H  0.47980950  0.32279931  0.90715383     0.33210
H1339       H  0.52392805  0.39898297  0.99062339     0.32170
H1340       H  0.27453558  0.24221176  0.97381178     0.36170
H1341       H  0.33313628  0.32892937  0.94829954     0.28900
H1342       H  0.45664313  0.20050988  0.54247014     0.33140
H1343       H  0.53742978  0.36194446  0.54946477     0.35990
H1344       H  0.39205907  0.23173038  0.91649710     0.28600
H1345       H  0.31000228  0.32170552  0.97550709     0.41470
H1346       H  0.30813970  0.20686355  0.57586385     0.31530
H1347       H  0.28356524  0.17407554  0.52704435     0.39140
H1348       H  0.52184888  0.36128554  0.98336759     0.30990
H1349       H  0.40654699  0.32241787  0.60123699     0.31060
H1350       H  0.48228838  0.24350744  0.54660260     0.31320
Zr1351     Zr  0.56859651  0.76466855  0.50604991     2.17510
O1352       O  0.51705621  0.77466294  0.49555388    -0.51030
O1353       O  0.61073207  0.83081085  0.51245984    -0.74240
O1354       O  0.55566614  0.78489999  0.55147822    -0.81020
O1355       O  0.59410953  0.74434654  0.93356599    -0.82770
O1356       O  0.52001426  0.73077531  0.57235092    -0.78390
O1357       O  0.56132054  0.76820408  0.95459230    -0.90030
O1358       O  0.65544283  0.83425309  0.54135672    -0.75990
O1359       O  0.59391751  0.75981385  0.54909953    -0.85480
O1360       O  0.63029926  0.77701574  0.49509878    -0.85170
O1361       O  0.52712329  0.70358876  0.52508721    -0.71930
O1362       O  0.56447104  0.71589101  0.97733382    -0.84060
Zr1363     Zr  0.60679024  0.66385084  0.52707028     2.26420
Zr1364     Zr  0.55456870  0.69906610  0.56813331     2.06270
Zr1365     Zr  0.62538812  0.72668483  0.96697490     2.10050
Zr1366     Zr  0.65532203  0.77502588  0.53900587     1.78760
O1367       O  0.62031585  0.69324464  0.92405810    -0.92870
O1368       O  0.66969235  0.79599914  0.58705211    -0.40670
O1369       O  0.65030338  0.72506654  0.51077178    -0.77310
O1370       O  0.61673229  0.71343606  0.55790387    -0.95990
O1371       O  0.54576810  0.65097142  0.53721515    -0.89300
O1372       O  0.58194074  0.66580550  0.48343379    -0.92140
C1373       C  0.63765875  0.84848692  0.52959597     1.01610
C1374       C  0.57250692  0.75803754  0.93265874     1.14540
C1375       C  0.53822321  0.76590110  0.57321135     1.05320
O1376       O  0.57377408  0.72828090  0.61361003    -0.94290
O1377       O  0.56691555  0.65930708  0.59865877    -0.90040
O1378       O  0.59933985  0.63944867  0.57248703    -0.83180
C1379       C  0.58492709  0.64185736  0.59526052     1.11960
O1380       O  0.47954566  0.66842838  0.46668225    -0.96270
Zr1381     Zr  0.52133719  0.65595184  0.49402447     1.88940
O1382       O  0.56125302  0.59864631  0.52105695    -0.72920
O1383       O  0.49445952  0.65282678  0.58684411    -0.52180
O1384       O  0.46171304  0.62554153  0.51828557    -0.96860
O1385       O  0.50550146  0.62539321  0.94875865    -0.54080
O1386       O  0.50960567  0.59395130  0.50177865    -0.73430
C1387       C  0.52789233  0.57963588  0.51200750     0.98910
O1388       O  0.65495583  0.65346557  0.54644031    -0.62250
O1389       O  0.67860844  0.78092288  0.94660335    -0.57060
O1390       O  0.63822275  0.65104983  0.49066911    -0.93740
O1391       O  0.67196158  0.70600441  0.96974869    -0.92170
O1392       O  0.71027694  0.81505696  0.51136491    -0.92520
O1393       O  0.70978034  0.77556220  0.55790260    -0.91310
C1394       C  0.66799372  0.67501810  0.97872370     1.17750
H1395       H  0.64488985  0.80066317  0.98590302     0.33700
H1396       H  0.62862325  0.71205450  0.57469136     0.44550
H1397       H  0.58046435  0.64687959  0.97095451     0.38070
H1398       H  0.50266760  0.70040447  0.52787380     0.34550
H1399       H  0.68931111  0.82242884  0.58575509     0.26340
H1400       H  0.49232845  0.66340749  0.60477851     0.32280
H1401       H  0.44705255  0.60140244  0.50871155     0.38190
H1402       H  0.72160433  0.83941561  0.52087946     0.32650
H1403       H  0.69035464  0.77063291  0.93422016     0.31520
H1404       H  0.63670854  0.71265865  0.91063485     0.33210
H1405       H  0.48128233  0.60250396  0.95172849     0.32170
H1406       H  0.70280629  0.74906412  0.55865094     0.36170
H1407       H  0.65086940  0.62982916  0.53830460     0.28900
H1408       H  0.52566879  0.80047196  0.50160796     0.33140
H1409       H  0.45514571  0.64526900  0.46722304     0.35990
H1410       H  0.66785106  0.79159440  0.93378677     0.28600
H1411       H  0.67862727  0.67293032  0.53822866     0.41470
H1412       H  0.60010507  0.73491020  0.61523047     0.31530
H1413       H  0.64753407  0.79668295  0.59387586     0.39140
H1414       H  0.52323011  0.61639770  0.94569132     0.30990
H1415       H  0.47601853  0.65407896  0.57464555     0.31060
H1416       H  0.49749910  0.75904167  0.50919040     0.31320
Zr1417     Zr  0.22543879  0.80713026  0.50529172     2.17510
O1418       O  0.21325342  0.74505532  0.49366128    -0.51030
O1419       O  0.15942665  0.78458289  0.50996248    -0.74240
O1420       O  0.20376079  0.77313723  0.55043407    -0.81020
O1421       O  0.25040451  0.85477417  0.93267567    -0.82770
O1422       O  0.25739982  0.78958937  0.57088372    -0.78390
O1423       O  0.22531568  0.79825104  0.95388693    -0.90030
O1424       O  0.15599097  0.82317758  0.54178368    -0.75990
O1425       O  0.22939568  0.83580547  0.54894952    -0.85480
O1426       O  0.21386963  0.85705083  0.49500748    -0.85170
O1427       O  0.28614475  0.82547518  0.52405571    -0.71930
O1428       O  0.27515888  0.85243085  0.97755983    -0.84060
Zr1429     Zr  0.32682670  0.94506921  0.52898920     2.26420
Zr1430     Zr  0.28977878  0.85585202  0.56775694     2.06270
Zr1431     Zr  0.26504168  0.90280891  0.96744048     2.10050
Zr1432     Zr  0.21514548  0.88270586  0.53961097     1.78760
O1433       O  0.29949957  0.93385739  0.92541915    -0.92870
O1434       O  0.19359411  0.87672616  0.58757789    -0.40670
O1435       O  0.26603065  0.92774546  0.51206062    -0.77310
O1436       O  0.27634016  0.90444250  0.55892878    -0.95990
O1437       O  0.33865533  0.89605194  0.53779885    -0.89300
O1438       O  0.32538469  0.91966643  0.48455276    -0.92140
C1439       C  0.14172837  0.79208971  0.52850606     1.01610
C1440       C  0.23706474  0.81939395  0.93194599     1.14540
C1441       C  0.22235333  0.77369629  0.57202185     1.05320
O1442       O  0.26140989  0.84590651  0.61370918    -0.94290
O1443       O  0.32835900  0.90747918  0.59842447    -0.90040
O1444       O  0.35967836  0.95943687  0.57190254    -0.83180
C1445       C  0.35176531  0.94214162  0.59500741     1.11960
O1446       O  0.32333858  0.81479787  0.46598976    -0.96270
Zr1447     Zr  0.33479611  0.86849137  0.49394200     1.88940
O1448       O  0.39214491  0.96739147  0.52013359    -0.72920
O1449       O  0.33545441  0.84114363  0.58589927    -0.52180
O1450       O  0.36552973  0.83963938  0.51773309    -0.96860
O1451       O  0.36525427  0.88366787  0.94849151    -0.54080
O1452       O  0.39655253  0.91934662  0.50230694    -0.73430
C1453       C  0.41106768  0.95258018  0.51153095     0.98910
O1454       O  0.32860038  0.99790524  0.55264994    -0.62250
O1455       O  0.21094184  0.90119159  0.94668770    -0.57060
O1456       O  0.33975336  0.99077129  0.49391558    -0.93740
O1457       O  0.28503400  0.96999481  0.97304247    -0.92170
O1458       O  0.17496288  0.89738649  0.51237393    -0.92520
O1459       O  0.21486724  0.93695550  0.55846886    -0.91310
C1460       C  0.31541141  0.99680502  0.98316383     1.17750
H1461       H  0.19047297  0.84842692  0.98568843     0.33700
H1462       H  0.27771588  0.91724380  0.57605568     0.44550
H1463       H  0.34468495  0.93751217  0.97245712     0.38070
H1464       H  0.28902274  0.80397987  0.52632128     0.34550
H1465       H  0.16713535  0.86975352  0.58615893     0.26340
H1466       H  0.32465313  0.82826636  0.60373405     0.32280
H1467       H  0.39011035  0.85005864  0.50853521     0.38190
H1468       H  0.15060895  0.88431653  0.52200895     0.32650
H1469       H  0.22068937  0.92602768  0.93817732     0.31520
H1470       H  0.28030058  0.93116421  0.91203487     0.33210
H1471       H  0.38875234  0.88352572  0.95134807     0.32170
H1472       H  0.24099309  0.95409503  0.56373950     0.36170
H1473       H  0.30896918  0.00092163  0.54356799     0.28900
H1474       H  0.18670560  0.72859513  0.49836600     0.33140
H1475       H  0.34669227  0.81392238  0.46643776     0.35990
H1476       H  0.20449947  0.88408787  0.93066415     0.28600
H1477       H  0.31851842  0.98891236  0.57153627     0.41470
H1478       H  0.25274911  0.86411209  0.61507325     0.31530
H1479       H  0.19294380  0.85405121  0.59456923     0.39140
H1480       H  0.37316620  0.91010835  0.94533667     0.30990
H1481       H  0.33403700  0.82149822  0.57343083     0.31060
H1482       H  0.22684096  0.73942359  0.50789906     0.31320
Zr1483     Zr  0.75666966  0.18811421  0.51672346     2.17510
O1484       O  0.76432337  0.24846985  0.52882738    -0.51030
O1485       O  0.82228967  0.21117573  0.50934176    -0.74240
O1486       O  0.77009554  0.20085436  0.56721450    -0.81020
O1487       O  0.71589437  0.20042176  0.95515883    -0.82770
O1488       O  0.74978240  0.14526931  0.58905016    -0.78390
O1489       O  0.77149584  0.22808245  0.97469565    -0.90030
O1490       O  0.82827538  0.16932624  0.98269984    -0.75990
O1491       O  0.76837269  0.13870862  0.52796658    -0.85480
O1492       O  0.75550650  0.15857133  0.97344788    -0.85170
O1493       O  0.70651915  0.14517621  0.54637903    -0.71930
O1494       O  0.69641534  0.16685551  0.99657128    -0.84060
Zr1495     Zr  0.65705403  0.04787041  0.99724770     2.26420
Zr1496     Zr  0.71774243  0.09473176  0.55683410     2.06270
Zr1497     Zr  0.69471477  0.13520729  0.95418317     2.10050
Zr1498     Zr  0.76839002  0.11119041  0.98453695     1.78760
O1499       O  0.65246314  0.14808992  0.92792633    -0.92870
O1500       O  0.80953431  0.09729253  0.51128677    -0.40670
O1501       O  0.70668993  0.08636179  0.96577225    -0.77310
O1502       O  0.71856485  0.06776669  0.51339495    -0.95990
O1503       O  0.65698937  0.07578962  0.53992869    -0.89300
O1504       O  0.64539770  0.09603010  0.98466570    -0.92140
C1505       C  0.84130135  0.20157603  0.49379921     1.01610
C1506       C  0.75046729  0.22327395  0.95360132     1.14540
C1507       C  0.76418816  0.18067234  0.58926473     1.05320
O1508       O  0.76477778  0.08722886  0.58112535    -0.94290
O1509       O  0.69605728  0.02689119  0.55898288    -0.90040
O1510       O  0.64626829  0.00078177  0.53050911    -0.83180
C1511       C  0.66834707  0.99832868  0.54754698     1.11960
O1512       O  0.65555985  0.18250416  0.54907351    -0.96270
Zr1513     Zr  0.64746046  0.12599481  0.52711221     1.88940
O1514       O  0.59148497  0.02555173  0.00649460    -0.72920
O1515       O  0.67783236  0.07428143  0.59787220    -0.52180
O1516       O  0.62064827  0.11464055  0.57372783    -0.96860
O1517       O  0.61404911  0.15027485  0.00105421    -0.54080
O1518       O  0.58607838  0.07352727  0.52310982    -0.73430
C1519       C  0.57210765  0.03985373  0.01518343     0.98910
O1520       O  0.64799231  0.98766834  0.98255851    -0.62250
O1521       O  0.73126151  0.14436188  0.91193711    -0.57060
O1522       O  0.63213997  0.03252300  0.95215690    -0.93740
O1523       O  0.65372220  0.08369918  0.92474861    -0.92170
O1524       O  0.78690247  0.11677423  0.93582230    -0.92520
O1525       O  0.76979720  0.05710090  0.96657268    -0.91310
C1526       C  0.63499250  0.04871178  0.92916674     1.17750
H1527       H  0.77450947  0.17486241  0.96052082     0.33700
H1528       H  0.72250781  0.04687236  0.51489965     0.44550
H1529       H  0.62187375  0.08686735  0.97537849     0.38070
H1530       H  0.70490792  0.15689198  0.56322680     0.34550
H1531       H  0.83082835  0.10367123  0.49868367     0.26340
H1532       H  0.69412971  0.07497550  0.61307398     0.32280
H1533       H  0.59567100  0.11166937  0.57127642     0.38190
H1534       H  0.81375100  0.12507042  0.93622076     0.32650
H1535       H  0.71876597  0.15079062  0.89732867     0.31520
H1536       H  0.65742782  0.14555644  0.90810529     0.33210
H1537       H  0.58849593  0.13726643  0.00876431     0.32170
H1538       H  0.74350040  0.03885357  0.96255691     0.36170
H1539       H  0.62296472  0.97394864  0.97417713     0.28900
H1540       H  0.78857959  0.26190527  0.53837341     0.33140
H1541       H  0.63022727  0.17863308  0.55173174     0.35990
H1542       H  0.75545359  0.16718786  0.91466651     0.28600
H1543       H  0.66560972  0.99311458  0.96695277     0.41470
H1544       H  0.78875170  0.10812274  0.57454943     0.31530
H1545       H  0.81986536  0.11660927  0.52591516     0.39140
H1546       H  0.61153230  0.14014736  0.98202949     0.30990
H1547       H  0.67327588  0.09498848  0.60208858     0.31060
H1548       H  0.74558422  0.24326031  0.54355385     0.31320
Zr1549     Zr  0.80273254  0.23550931  0.76850229     2.17510
O1550       O  0.74109787  0.22596386  0.77850973    -0.51030
O1551       O  0.77791517  0.16926905  0.76260166    -0.74240
O1552       O  0.77050265  0.21642811  0.72298164    -0.81020
O1553       O  0.84611642  0.25385752  0.84129221    -0.82770
O1554       O  0.79073936  0.27116667  0.70282063    -0.78390
O1555       O  0.79050932  0.23255073  0.81976852    -0.90030
O1556       O  0.81894084  0.16455357  0.73377443    -0.75990
O1557       O  0.83365996  0.24035085  0.72552247    -0.85480
O1558       O  0.85072353  0.22126155  0.77916073    -0.85170
O1559       O  0.82425940  0.29731505  0.75022043    -0.71930
O1560       O  0.84729370  0.28299935  0.79781344    -0.84060
Zr1561     Zr  0.94356530  0.33432684  0.74880579     2.26420
Zr1562     Zr  0.85695621  0.30165099  0.70728397     2.06270
Zr1563     Zr  0.89581443  0.27015354  0.80815758     2.10050
Zr1564     Zr  0.87871854  0.22373629  0.73525616     1.78760
O1565       O  0.92345818  0.30113127  0.85186111    -0.92870
O1566       O  0.87201245  0.20320244  0.68705210    -0.40670
O1567       O  0.92336299  0.27230724  0.76441254    -0.77310
O1568       O  0.90408162  0.28625929  0.71685258    -0.95990
O1569       O  0.89617708  0.34821011  0.73898829    -0.89300
O1570       O  0.91561673  0.33178030  0.79238676    -0.92140
C1571       C  0.78689064  0.15087534  0.74580511     1.01610
C1572       C  0.81108642  0.24202494  0.84192724     1.14540
C1573       C  0.77337409  0.23606289  0.70141120     1.05320
O1574       O  0.85250788  0.27078888  0.66314862    -0.94290
O1575       O  0.90917889  0.35107887  0.68140531    -0.90040
O1576       O  0.96129349  0.36760155  0.70611423    -0.83180
C1577       C  0.94458046  0.37016701  0.68484160     1.11960
O1578       O  0.81221040  0.33225280  0.80967924    -0.96270
Zr1579     Zr  0.86620399  0.34361582  0.78192412     1.88940
O1580       O  0.96685593  0.39976678  0.75907804    -0.72920
O1581       O  0.84043453  0.34302352  0.68355625    -0.52180
O1582       O  0.83809102  0.37523868  0.75834379    -0.96860
O1583       O  0.88199912  0.37431952  0.82713603    -0.54080
O1584       O  0.91729490  0.40489270  0.77301645    -0.73430
C1585       C  0.95132363  0.41876751  0.76578799     0.98910
O1586       O  0.99949194  0.33838517  0.72853526    -0.62250
O1587       O  0.89161523  0.21406411  0.82746829    -0.57060
O1588       O  0.98777741  0.34451712  0.78413559    -0.93740
O1589       O  0.96287799  0.28981787  0.80658244    -0.92170
O1590       O  0.89348334  0.18344351  0.76233020    -0.92520
O1591       O  0.93187189  0.22172074  0.71579038    -0.91310
C1592       C  0.99113679  0.32007414  0.79767016     1.17750
H1593       H  0.84096679  0.19734462  0.78803984     0.33700
H1594       H  0.91783177  0.28844067  0.70000987     0.44550
H1595       H  0.93313829  0.35004489  0.80513283     0.38070
H1596       H  0.80347695  0.30123093  0.74745199     0.34550
H1597       H  0.86252608  0.17615012  0.68812915     0.26340
H1598       H  0.82662870  0.32917167  0.66682682     0.32280
H1599       H  0.84871331  0.39972033  0.76760750     0.38190
H1600       H  0.87951500  0.15885971  0.75324469     0.32650
H1601       H  0.91664652  0.22224514  0.83501189     0.31520
H1602       H  0.92565022  0.28228755  0.86293129     0.33210
H1603       H  0.88053010  0.39715021  0.82446333     0.32170
H1604       H  0.95268861  0.24758711  0.71723830     0.36170
H1605       H  0.00284311  0.31943955  0.73844527     0.28900
H1606       H  0.72390132  0.20017176  0.77245586     0.33140
H1607       H  0.81185336  0.35587426  0.80958299     0.35990
H1608       H  0.87553599  0.20829889  0.84413141     0.28600
H1609       H  0.99234285  0.32814824  0.70950952     0.41470
H1610       H  0.87849042  0.28116236  0.65669638     0.31530
H1611       H  0.85083328  0.20526010  0.67992951     0.39140
H1612       H  0.90881945  0.38342788  0.82954520     0.30990
H1613       H  0.82158445  0.34400953  0.69564897     0.31060
H1614       H  0.73763828  0.24164487  0.76475769     0.31320
Zr1615     Zr  0.17930992  0.76552444  0.75791417     2.17510
O1616       O  0.24078655  0.77608855  0.74553611    -0.51030
O1617       O  0.20073893  0.83113295  0.76571298    -0.74240
O1618       O  0.19098546  0.77668089  0.70672893    -0.81020
O1619       O  0.19190876  0.72380770  0.81922379    -0.82770
O1620       O  0.13496911  0.75478554  0.68525982    -0.78390
O1621       O  0.21900635  0.78003000  0.80054323    -0.90030
O1622       O  0.15503227  0.83573511  0.78846314    -0.75990
O1623       O  0.12830832  0.77464069  0.74604336    -0.85480
O1624       O  0.14871338  0.76369620  0.80084172    -0.85170
O1625       O  0.13677326  0.71381611  0.72920893    -0.71930
O1626       O  0.15924486  0.70552414  0.77848852    -0.84060
Zr1627     Zr  0.03883077  0.66193391  0.77832794     2.26420
Zr1628     Zr  0.08499802  0.72278162  0.71796796     2.06270
Zr1629     Zr  0.12687768  0.70331474  0.82065291     2.10050
Zr1630     Zr  0.09961917  0.77396496  0.78913604     1.78760
O1631       O  0.13717084  0.65880499  0.84633658    -0.92870
O1632       O  0.08141485  0.81124606  0.76151755    -0.40670
O1633       O  0.07686398  0.71292126  0.80854954    -0.77310
O1634       O  0.05691581  0.72290794  0.76124112    -0.95990
O1635       O  0.06789641  0.66281531  0.73586245    -0.89300
O1636       O  0.08869673  0.65311991  0.79114657    -0.92140
C1637       C  0.18825774  0.84968301  0.77884118     1.01610
C1638       C  0.21502388  0.75822875  0.82107100     1.14540
C1639       C  0.17039162  0.76955065  0.68475821     1.05320
O1640       O  0.07583761  0.76890292  0.69375984    -0.94290
O1641       O  0.01658484  0.69851752  0.71636629    -0.90040
O1642       O  0.99754302  0.64563045  0.73948459    -0.83180
C1643       C  0.99025579  0.66812222  0.72695795     1.11960
O1644       O  0.17458245  0.66317652  0.72514516    -0.96270
Zr1645     Zr  0.11901399  0.65512574  0.74891509     1.88940
O1646       O  0.01830765  0.59648395  0.77090263    -0.72920
O1647       O  0.06549061  0.68293566  0.67706752    -0.52180
O1648       O  0.10481399  0.62656982  0.70297356    -0.96860
O1649       O  0.14691025  0.62497543  0.77480177    -0.54080
O1650       O  0.06853198  0.59282414  0.75641905    -0.73430
C1651       C  0.03448377  0.57819192  0.76388802     0.98910
O1652       O  0.98053601  0.65607997  0.79493847    -0.62250
O1653       O  0.13643252  0.74039602  0.86246348    -0.57060
O1654       O  0.02337737  0.63428387  0.82286200    -0.93740
O1655       O  0.07459409  0.66402465  0.85026150    -0.92170
O1656       O  0.10663124  0.79412135  0.83744119    -0.92520
O1657       O  0.04516348  0.77358354  0.80848048    -0.91310
C1658       C  0.04010488  0.64134733  0.84606553     1.17750
H1659       H  0.16470713  0.78307072  0.81355519     0.33700
H1660       H  0.03553481  0.72605545  0.75963201     0.44550
H1661       H  0.08060034  0.63013553  0.80104719     0.38070
H1662       H  0.14862343  0.71207006  0.71245909     0.34550
H1663       H  0.08723468  0.83298533  0.77336616     0.26340
H1664       H  0.06591650  0.69906062  0.66178592     0.32280
H1665       H  0.10161978  0.60155909  0.70579091     0.38190
H1666       H  0.11386385  0.82067820  0.83651458     0.32650
H1667       H  0.14082334  0.72691447  0.87753605     0.31520
H1668       H  0.13131492  0.66093177  0.86601881     0.33210
H1669       H  0.13599410  0.59976200  0.76672518     0.32170
H1670       H  0.02718687  0.74702453  0.81195428     0.36170
H1671       H  0.98554897  0.66594193  0.81412076     0.28900
H1672       H  0.25292372  0.79985791  0.73518234     0.33140
H1673       H  0.17039592  0.63782288  0.72204214     0.35990
H1674       H  0.16028358  0.76373703  0.85996685     0.28600
H1675       H  0.97787302  0.67505612  0.78446924     0.41470
H1676       H  0.09815217  0.79298405  0.69813601     0.31530
H1677       H  0.09994215  0.82152387  0.74625381     0.39140
H1678       H  0.13589205  0.62094553  0.79367416     0.30990
H1679       H  0.08654863  0.67887962  0.67290139     0.31060
H1680       H  0.23631459  0.75689453  0.73145091     0.31320
Zr1681     Zr  0.79941390  0.57085999  0.52002590     2.17510
O1682       O  0.73915977  0.51918094  0.53378648    -0.51030
O1683       O  0.77775509  0.61474023  0.51353701    -0.74240
O1684       O  0.79008943  0.57288184  0.57116850    -0.81020
O1685       O  0.78106485  0.51661494  0.95801695    -0.82770
O1686       O  0.84715298  0.60697873  0.59109980    -0.78390
O1687       O  0.75714123  0.54734441  0.97909337    -0.90030
O1688       O  0.81788936  0.65895656  0.98366110    -0.75990
O1689       O  0.85048288  0.63189942  0.52925434    -0.85480
O1690       O  0.82708653  0.59685108  0.97572754    -0.85170
O1691       O  0.84365364  0.56359242  0.54776839    -0.71930
O1692       O  0.81835989  0.52965570  0.99972266    -0.84060
Zr1693     Zr  0.93795371  0.60731423  0.99424466     2.26420
Zr1694     Zr  0.89545007  0.62510969  0.55633204     2.06270
Zr1695     Zr  0.84709414  0.55686897  0.95592220     2.10050
Zr1696     Zr  0.87595059  0.65702722  0.98474664     1.78760
O1697       O  0.83039172  0.49950583  0.93112308    -0.92870
O1698       O  0.89142695  0.71275826  0.51149634    -0.40670
O1699       O  0.89754590  0.61774270  0.96489878    -0.77310
O1700       O  0.92028401  0.65040006  0.51180159    -0.95990
O1701       O  0.91280519  0.58226285  0.53841722    -0.89300
O1702       O  0.88759639  0.54716317  0.98464089    -0.92140
C1703       C  0.78639007  0.64150043  0.49633828     1.01610
C1704       C  0.76033866  0.53088195  0.95730727     1.14540
C1705       C  0.81166832  0.58654285  0.59260646     1.05320
O1706       O  0.90436525  0.68212209  0.57770214    -0.94290
O1707       O  0.96381879  0.66914386  0.55682606    -0.90040
O1708       O  0.98799611  0.64723061  0.52446677    -0.83180
C1709       C  0.99156620  0.67044924  0.54340732     1.11960
O1710       O  0.80609246  0.47444228  0.55259606    -0.96270
Zr1711     Zr  0.86102253  0.52221436  0.52846971     1.88940
O1712       O  0.96153760  0.56585243  0.00499768    -0.72920
O1713       O  0.91818094  0.60911782  0.59759737    -0.52180
O1714       O  0.87480017  0.51070575  0.57537930    -0.96860
O1715       O  0.83521412  0.46292517  0.00410771    -0.54080
O1716       O  0.91358516  0.51307657  0.52342884    -0.73430
C1717       C  0.94704850  0.53264616  0.01448912     0.98910
O1718       O  0.99125339  0.65589322  0.96902066    -0.62250
O1719       O  0.83894609  0.58305929  0.91294980    -0.57060
O1720       O  0.94908616  0.58507124  0.95176016    -0.93740
O1721       O  0.89785451  0.56819264  0.92539030    -0.92170
O1722       O  0.86929248  0.66877386  0.93609612    -0.92520
O1723       O  0.92867395  0.71188229  0.96449690    -0.91310
C1724       C  0.93192524  0.57750614  0.92872961     1.17750
H1725       H  0.81098907  0.60002726  0.96308006     0.33700
H1726       H  0.94161818  0.67501141  0.51287014     0.44550
H1727       H  0.89515828  0.53134577  0.97539725     0.38070
H1728       H  0.83281906  0.55071388  0.56492247     0.34550
H1729       H  0.88564948  0.72801112  0.49894223     0.26340
H1730       H  0.91736607  0.62523469  0.61245504     0.32280
H1731       H  0.87930764  0.48956863  0.57347793     0.38190
H1732       H  0.85960447  0.68620784  0.93655283     0.32650
H1733       H  0.82777840  0.56218827  0.89960871     0.31520
H1734       H  0.83161741  0.50584649  0.91116288     0.33210
H1735       H  0.85131930  0.45263845  0.00917851     0.32170
H1736       H  0.95094948  0.71217845  0.97196633     0.36170
H1737       H  0.98163493  0.65679352  0.95042507     0.28900
H1738       H  0.72688865  0.53055549  0.54438106     0.33140
H1739       H  0.81096307  0.45379677  0.55602189     0.35990
H1740       H  0.81954521  0.58964636  0.91659232     0.28600
H1741       H  0.99623976  0.67950033  0.97780283     0.41470
H1742       H  0.88032429  0.68130551  0.57537639     0.31530
H1743       H  0.87213975  0.70442763  0.52621189     0.39140
H1744       H  0.84054966  0.46940551  0.98416724     0.30990
H1745       H  0.89821238  0.58380438  0.60260781     0.31060
H1746       H  0.74480143  0.50532359  0.54780092     0.31320
Zr1747     Zr  0.18141153  0.42639512  0.50749118     2.17510
O1748       O  0.24244444  0.47924793  0.49726850    -0.51030
O1749       O  0.20648902  0.38504662  0.51232880    -0.74240
O1750       O  0.21469705  0.43929030  0.55260439    -0.81020
O1751       O  0.13697026  0.40086960  0.93494866    -0.82770
O1752       O  0.19471438  0.47367696  0.57339726    -0.78390
O1753       O  0.19290796  0.43478886  0.95618047    -0.90030
O1754       O  0.16724253  0.34047848  0.54247312    -0.75990
O1755       O  0.15164014  0.39998568  0.55065286    -0.85480
O1756       O  0.13356845  0.36409897  0.49683457    -0.85170
O1757       O  0.15943131  0.46603116  0.52662164    -0.71930
O1758       O  0.13631625  0.42927283  0.97887186    -0.84060
Zr1759     Zr  0.04077407  0.38241846  0.53001437     2.26420
Zr1760     Zr  0.12839461  0.43758926  0.56994360     2.06270
Zr1761     Zr  0.08784630  0.36774361  0.96872335     2.10050
Zr1762     Zr  0.10681869  0.33815457  0.54093413     1.78760
O1763       O  0.05928276  0.37273462  0.92609453    -0.92870
O1764       O  0.11322244  0.32299746  0.58874698    -0.40670
O1765       O  0.06146398  0.34169902  0.51265873    -0.77310
O1766       O  0.08159975  0.37472303  0.56087193    -0.95990
O1767       O  0.08775198  0.44411158  0.53929505    -0.89300
O1768       O  0.06700647  0.40817286  0.48608033    -0.92140
C1769       C  0.19876632  0.35870768  0.52976967     1.01610
C1770       C  0.17210142  0.42375841  0.93414361     1.14540
C1771       C  0.21207546  0.45592364  0.57444402     1.05320
O1772       O  0.13256555  0.40961870  0.61322593    -0.94290
O1773       O  0.07706740  0.43571432  0.59642728    -0.90040
O1774       O  0.02399755  0.39755118  0.57348078    -0.83180
C1775       C  0.04149904  0.41832545  0.59401390     1.11960
O1776       O  0.17089357  0.51672762  0.47125863    -0.96270
Zr1777     Zr  0.11612613  0.46970997  0.49598321     1.88940
O1778       O  0.01668300  0.42423314  0.52236912    -0.72920
O1779       O  0.14578967  0.49506835  0.59488410    -0.52180
O1780       O  0.13848747  0.52749004  0.52178308    -0.96860
O1781       O  0.10398954  0.48430436  0.94950253    -0.54080
O1782       O  0.06211732  0.47631264  0.50133853    -0.73430
C1783       C  0.02971466  0.45682259  0.51196362     0.98910
O1784       O  0.98589794  0.32991429  0.55070556    -0.62250
O1785       O  0.09117069  0.31589357  0.94809337    -0.57060
O1786       O  0.99545881  0.34735089  0.49550739    -0.93740
O1787       O  0.02109765  0.31972698  0.97064810    -0.92170
O1788       O  0.09416073  0.28407055  0.51314188    -0.92520
O1789       O  0.05359139  0.28214303  0.55919152    -0.91310
C1790       C  0.99270978  0.32073416  0.98059995     1.17750
H1791       H  0.14337443  0.35015912  0.98749567     0.33700
H1792       H  0.06855925  0.36314941  0.57792903     0.44550
H1793       H  0.04899661  0.40867072  0.97384695     0.38070
H1794       H  0.18001182  0.49088402  0.52930200     0.34550
H1795       H  0.12264480  0.30540614  0.58717558     0.26340
H1796       H  0.16064163  0.49510569  0.61091612     0.32280
H1797       H  0.12765145  0.54084587  0.51214807     0.38190
H1798       H  0.10791882  0.27347899  0.52251015     0.32650
H1799       H  0.06884297  0.30316836  0.93623725     0.31520
H1800       H  0.05883036  0.35355683  0.91360037     0.33210
H1801       H  0.10000095  0.50567685  0.95216810     0.32170
H1802       H  0.03309804  0.28777221  0.55926184     0.36170
H1803       H  0.98274598  0.30778670  0.54055224     0.28900
H1804       H  0.26005546  0.47079656  0.50238757     0.33140
H1805       H  0.16867893  0.53934750  0.47120730     0.35990
H1806       H  0.11219734  0.32739333  0.93476570     0.28600
H1807       H  0.99366960  0.32703492  0.56953248     0.41470
H1808       H  0.13508369  0.42748449  0.62788338     0.31530
H1809       H  0.13441101  0.34600250  0.59620682     0.39140
H1810       H  0.07921352  0.46344277  0.94451971     0.30990
H1811       H  0.16376934  0.51515351  0.58256127     0.31060
H1812       H  0.24608501  0.49790906  0.51159350     0.31320
Zr1813     Zr  0.22694125  0.42199163  0.75883536     2.17510
O1814       O  0.22009380  0.47521921  0.74714492    -0.51030
O1815       O  0.16119176  0.37997700  0.76651737    -0.74240
O1816       O  0.21385893  0.42183990  0.70831131    -0.81020
O1817       O  0.26776795  0.47476373  0.82074765    -0.82770
O1818       O  0.23401793  0.38652053  0.68609418    -0.78390
O1819       O  0.21215073  0.44694468  0.80123506    -0.90030
O1820       O  0.15521289  0.33232416  0.79320552    -0.75990
O1821       O  0.21457825  0.36066708  0.74722524    -0.85480
O1822       O  0.22798319  0.39342491  0.80190034    -0.85170
O1823       O  0.27697384  0.42859954  0.72914058    -0.71930
O1824       O  0.28750786  0.46058042  0.77876039    -0.84060
Zr1825     Zr  0.32557997  0.37981052  0.77814807     2.26420
Zr1826     Zr  0.26495753  0.36668186  0.71823911     2.06270
Zr1827     Zr  0.28882146  0.43062277  0.82109888     2.10050
Zr1828     Zr  0.21446836  0.33294168  0.79047497     1.78760
O1829       O  0.33214999  0.48621882  0.84658423    -0.92870
O1830       O  0.17268813  0.27851869  0.76320866    -0.40670
O1831       O  0.27604333  0.36960198  0.80933294    -0.77310
O1832       O  0.26404157  0.33853282  0.76154082    -0.95990
O1833       O  0.32574563  0.40777741  0.73551048    -0.89300
O1834       O  0.33762426  0.43989383  0.79061838    -0.92140
C1835       C  0.14223586  0.35169400  0.78230387     1.01610
C1836       C  0.23322635  0.46321555  0.82233534     1.14540
C1837       C  0.21990003  0.40779495  0.68609320     1.05320
O1838       O  0.21643239  0.31136160  0.69552063    -0.94290
O1839       O  0.28804233  0.32163340  0.71599775    -0.90040
O1840       O  0.34088336  0.35232043  0.74018132    -0.83180
C1841       C  0.31799940  0.32421050  0.72607609     1.11960
O1842       O  0.33004092  0.51753178  0.72683440    -0.96270
Zr1843     Zr  0.33632939  0.46785900  0.74822560     1.88940
O1844       O  0.39170723  0.42335641  0.77223402    -0.72920
O1845       O  0.30294691  0.38404856  0.67620183    -0.52180
O1846       O  0.36174913  0.48152769  0.70115633    -0.96860
O1847       O  0.37202256  0.52555231  0.77410897    -0.54080
O1848       O  0.39731011  0.47532781  0.75222912    -0.73430
C1849       C  0.41098105  0.45636387  0.76234886     0.98910
O1850       O  0.32929296  0.32644257  0.79504509    -0.62250
O1851       O  0.25310154  0.40406342  0.86372751    -0.57060
O1852       O  0.35180824  0.38952148  0.82275869    -0.93740
O1853       O  0.33019847  0.41975027  0.84981014    -0.92170
O1854       O  0.19665427  0.32001037  0.83929779    -0.92520
O1855       O  0.21122567  0.27663258  0.80833714    -0.91310
C1856       C  0.34902518  0.40347421  0.84558261     1.17750
H1857       H  0.20917092  0.39087041  0.81499289     0.33700
H1858       H  0.26002164  0.31368491  0.75968221     0.44550
H1859       H  0.36102851  0.45427802  0.80005434     0.38070
H1860       H  0.27883544  0.44212646  0.71241151     0.34550
H1861       H  0.15146115  0.26351561  0.77582185     0.26340
H1862       H  0.28560296  0.36882365  0.66131238     0.32280
H1863       H  0.38730466  0.50274232  0.70321544     0.38190
H1864       H  0.16947291  0.30281343  0.83912322     0.32650
H1865       H  0.26589789  0.42327110  0.87815972     0.31520
H1866       H  0.32832104  0.47894049  0.86644848     0.33210
H1867       H  0.38805031  0.52104224  0.78676446     0.32170
H1868       H  0.23670583  0.28078272  0.80604109     0.36170
H1869       H  0.31338029  0.31829176  0.81187307     0.28900
H1870       H  0.19595476  0.46473337  0.73747204     0.33140
H1871       H  0.35571057  0.53816160  0.72372007     0.35990
H1872       H  0.22889190  0.40271725  0.86116488     0.28600
H1873       H  0.31511839  0.30614619  0.78166876     0.41470
H1874       H  0.19309913  0.31124779  0.69998441     0.31530
H1875       H  0.16235320  0.28789346  0.74893702     0.39140
H1876       H  0.35367954  0.52686862  0.78658564     0.30990
H1877       H  0.30865283  0.40971301  0.67217532     0.31060
H1878       H  0.23903357  0.48873519  0.73255900     0.31320
Zr1879     Zr  0.75510091  0.57140223  0.77198134     2.17510
O1880       O  0.76643798  0.52097545  0.78345236    -0.51030
O1881       O  0.82110418  0.61514058  0.76714045    -0.74240
O1882       O  0.77600432  0.55784493  0.72685457    -0.81020
O1883       O  0.73334307  0.59788590  0.84374241    -0.82770
O1884       O  0.72211896  0.52109971  0.70639828    -0.78390
O1885       O  0.75702849  0.56447843  0.82359962    -0.90030
O1886       O  0.82448433  0.65502716  0.73375280    -0.75990
O1887       O  0.75048800  0.59492420  0.72807259    -0.85480
O1888       O  0.76766747  0.63351778  0.78110253    -0.85170
O1889       O  0.69375635  0.52945787  0.75390375    -0.71930
O1890       O  0.70620524  0.56828139  0.80017133    -0.84060
Zr1891     Zr  0.65455291  0.60953575  0.74796628     2.26420
Zr1892     Zr  0.68966074  0.55499284  0.70989235     2.06270
Zr1893     Zr  0.71737900  0.62950143  0.80887329     2.10050
Zr1894     Zr  0.76594614  0.65666980  0.73621844     1.78760
O1895       O  0.68497821  0.62692964  0.85190568    -0.92870
O1896       O  0.78683514  0.66941595  0.68796500    -0.40670
O1897       O  0.71594527  0.65256228  0.76414235    -0.77310
O1898       O  0.70420081  0.61766341  0.71765330    -0.95990
O1899       O  0.64150110  0.54800364  0.74013817    -0.89300
O1900       O  0.65633376  0.58673143  0.79263571    -0.92140
C1901       C  0.83888871  0.63909533  0.74789786     1.01610
C1902       C  0.74647677  0.57577736  0.84525724     1.14540
C1903       C  0.75724523  0.53976648  0.70527965     1.05320
O1904       O  0.71669734  0.57111892  0.66343783    -0.94290
O1905       O  0.65198455  0.56861443  0.67879769    -0.90040
O1906       O  0.62147417  0.59049556  0.70507248    -0.83180
C1907       C  0.62914377  0.58065472  0.68200602     1.11960
O1908       O  0.65493752  0.47967563  0.80936507    -0.96270
Zr1909     Zr  0.64592448  0.52545151  0.78430831     1.88940
O1910       O  0.58935142  0.56750294  0.75847711    -0.72920
O1911       O  0.64255382  0.49404845  0.69348000    -0.52180
O1912       O  0.61070441  0.46633199  0.76017169    -0.96860
O1913       O  0.62131405  0.51328889  0.83166945    -0.54080
O1914       O  0.58440926  0.51650397  0.77968030    -0.73430
C1915       C  0.57041416  0.53500908  0.76926393     0.98910
O1916       O  0.65048086  0.65917206  0.72410614    -0.62250
O1917       O  0.77240707  0.68296337  0.82784210    -0.57060
O1918       O  0.64442033  0.64767007  0.77996827    -0.93740
O1919       O  0.69679738  0.67606607  0.80551818    -0.92170
O1920       O  0.80741070  0.71238352  0.76229842    -0.92520
O1921       O  0.76667554  0.71087665  0.71647834    -0.91310
C1922       C  0.66765548  0.67466882  0.79490413     1.17750
H1923       H  0.79123849  0.64848895  0.79019868     0.33700
H1924       H  0.70278881  0.62872991  0.70040394     0.44550
H1925       H  0.63758322  0.58640843  0.80478565     0.38070
H1926       H  0.69039909  0.50486411  0.75175943     0.34550
H1927       H  0.81279868  0.69016196  0.68891575     0.26340
H1928       H  0.65173714  0.49152348  0.67500841     0.32280
H1929       H  0.58687233  0.45295534  0.77046693     0.38190
H1930       H  0.83157099  0.72278378  0.75246298     0.32650
H1931       H  0.76333410  0.69921418  0.83531088     0.31520
H1932       H  0.70372024  0.64765683  0.86327868     0.33210
H1933       H  0.59560756  0.49223663  0.82995186     0.32170
H1934       H  0.74013617  0.70315738  0.71413033     0.36170
H1935       H  0.66873853  0.68237537  0.73348868     0.28900
H1936       H  0.79225174  0.52982578  0.77716807     0.33140
H1937       H  0.62999339  0.45734625  0.81100615     0.35990
H1938       H  0.77869202  0.67338591  0.84454693     0.28600
H1939       H  0.66160863  0.66104173  0.70548223     0.41470
H1940       H  0.72833725  0.59845882  0.66240160     0.31530
H1941       H  0.78909822  0.64777816  0.68214498     0.39140
H1942       H  0.61829236  0.53473512  0.83664264     0.30990
H1943       H  0.64520127  0.47622249  0.70549265     0.31060
H1944       H  0.75086086  0.50091762  0.77024296     0.31320
C1945       C  0.47342478  0.50010558  0.74264620     0.23890
C1946       C  0.45173653  0.47503592  0.76369281    -0.24210
C1947       C  0.46927036  0.47099102  0.78724435     0.18800
C1948       C  0.50790977  0.49146251  0.78955328     0.23840
C1949       C  0.52959074  0.51644833  0.76842413    -0.24160
C1950       C  0.51195002  0.52074630  0.74506824     0.18740
F1951       F  0.53207586  0.54397520  0.72405910    -0.14120
F1952       F  0.45733028  0.50420517  0.71944264    -0.16480
F1953       F  0.52409275  0.48741509  0.81271716    -0.16480
F1954       F  0.44896386  0.44835565  0.80852117    -0.14120
C1955       C  0.21410351  0.41055165  0.60757611     0.23890
C1956       C  0.21945826  0.44620784  0.60263085    -0.24210
C1957       C  0.22338570  0.46878218  0.62582904     0.18800
C1958       C  0.22138047  0.45574174  0.65311311     0.23840
C1959       C  0.21499288  0.41960613  0.65791906    -0.24160
C1960       C  0.21126770  0.39724274  0.63465813     0.18740
F1961       F  0.20472762  0.36204818  0.63804328    -0.14120
F1962       F  0.20971383  0.38749003  0.58621554    -0.16480
F1963       F  0.22700888  0.47902052  0.67472156    -0.16480
F1964       F  0.22911787  0.50360794  0.62208973    -0.14120
C1965       C  0.24036439  0.47548071  0.87435355     0.23890
C1966       C  0.21709821  0.46180847  0.85070055    -0.24210
C1967       C  0.17870972  0.44025995  0.85537374     0.18800
C1968       C  0.16436548  0.42909504  0.88228328     0.23840
C1969       C  0.18804383  0.43881132  0.90574651    -0.24160
C1970       C  0.22616954  0.46360884  0.90139206     0.18740
F1971       F  0.25011358  0.47567212  0.92310614    -0.14120
F1972       F  0.27739408  0.49897120  0.87137940    -0.16480
F1973       F  0.12691719  0.40790163  0.88493328    -0.16480
F1974       F  0.15473557  0.42839543  0.83378245    -0.14120
C1975       C  0.97488472  0.50106270  0.98864643     0.23890
C1976       C  0.96923208  0.51442618  0.51399197    -0.24210
C1977       C  0.98212548  0.50736283  0.53882275     0.18800
C1978       C  0.00091817  0.48736087  0.53826930     0.23840
C1979       C  0.00663311  0.47412049  0.51288984    -0.24160
C1980       C  0.99379090  0.48122810  0.98806636     0.18740
F1981       F  0.99914583  0.46851155  0.96342005    -0.14120
F1982       F  0.96109995  0.50636625  0.96466049    -0.16480
F1983       F  0.01460036  0.48193824  0.56228012    -0.16480
F1984       F  0.97687826  0.52023882  0.56342792    -0.14120
C1985       C  0.75115293  0.53036617  0.87835529     0.23890
C1986       C  0.74704009  0.56161027  0.87399553    -0.24210
C1987       C  0.74066982  0.57806397  0.89772595     0.18800
C1988       C  0.74089338  0.56538430  0.92467040     0.23840
C1989       C  0.74785518  0.53605679  0.92919880    -0.24160
C1990       C  0.75124068  0.51760126  0.90549376     0.18740
F1991       F  0.75656493  0.48815881  0.90852036    -0.14120
F1992       F  0.75561260  0.51228427  0.85644115    -0.16480
F1993       F  0.73676611  0.58380320  0.94640809    -0.16480
F1994       F  0.73545094  0.60765246  0.89525145    -0.14120
C1995       C  0.75451825  0.52653633  0.65379728     0.23890
C1996       C  0.77460921  0.54827350  0.67692450    -0.24210
C1997       C  0.80679506  0.58256651  0.67168457     0.18800
C1998       C  0.81728905  0.59583029  0.64449644     0.23840
C1999       C  0.79646527  0.57483217  0.62138196    -0.24160
C2000       C  0.76519619  0.53968200  0.62646273     0.18740
F2001       F  0.74527735  0.51748769  0.60500834    -0.14120
F2002       F  0.72364963  0.49285066  0.65762567    -0.16480
F2003       F  0.84797102  0.62973946  0.64092244    -0.16480
F2004       F  0.82751082  0.60440273  0.69290105    -0.14120
C2005       C  0.99341989  0.64085299  0.87568162     0.23890
C2006       C  0.01577215  0.62550388  0.86942376    -0.24210
C2007       C  0.00823439  0.59148166  0.88078198     0.18800
C2008       C  0.97843589  0.57323579  0.89918045     0.23840
C2009       C  0.95544870  0.58827784  0.90465056    -0.24160
C2010       C  0.96274725  0.62181331  0.89255752     0.18740
F2011       F  0.94181499  0.63759132  0.89895396    -0.14120
F2012       F  0.00117959  0.67421235  0.86500819    -0.16480
F2013       F  0.97215829  0.54146268  0.91180778    -0.16480
F2014       F  0.02933466  0.57613377  0.87388004    -0.14120
C2015       C  0.93914060  0.68449100  0.71909162     0.23890
C2016       C  0.95033789  0.65924132  0.72793430    -0.24210
C2017       C  0.92361703  0.62677483  0.74195671     0.18800
C2018       C  0.88841232  0.62110567  0.74863372     0.23840
C2019       C  0.87753385  0.64692252  0.74090781    -0.24160
C2020       C  0.90307430  0.67818891  0.72519451     0.18740
F2021       F  0.89359252  0.70324078  0.71625010    -0.14120
F2022       F  0.96326377  0.71575764  0.70510692    -0.16480
F2023       F  0.86479638  0.58959384  0.76264140    -0.16480
F2024       F  0.93162601  0.60040519  0.75035198    -0.14120
C2025       C  0.03208299  0.42821614  0.64407059     0.23890
C2026       C  0.01815782  0.41939184  0.61692394    -0.24210
C2027       C  0.97968928  0.40471696  0.61274638     0.18800
C2028       C  0.95514544  0.39203605  0.63528808     0.23840
C2029       C  0.96883869  0.39477222  0.66233395    -0.24160
C2030       C  0.00761060  0.41647346  0.66662819     0.18740
F2031       F  0.02219918  0.42350407  0.69263450    -0.14120
F2032       F  0.06909883  0.44472005  0.64905956    -0.16480
F2033       F  0.91807863  0.37411488  0.63026526    -0.16480
F2034       F  0.96538621  0.39952740  0.58670988    -0.14120
C2035       C  0.03830004  0.29840537  0.80021211     0.23890
C2036       C  0.02995674  0.32736685  0.80040568    -0.24210
C2037       C  0.05944727  0.36409494  0.79700641     0.18800
C2038       C  0.09521371  0.37139455  0.79068486     0.23840
C2039       C  0.10353995  0.34253228  0.78927698    -0.24160
C2040       C  0.07492094  0.30601125  0.79512337     0.18740
F2041       F  0.08182218  0.27739713  0.79418007    -0.14120
F2042       F  0.01077175  0.26258961  0.80306535    -0.16480
F2043       F  0.12164552  0.40709681  0.78540679    -0.16480
F2044       F  0.05338390  0.39328177  0.79837426    -0.14120
C2045       C  0.95808716  0.47955469  0.75249656     0.23890
C2046       C  0.97334026  0.45946567  0.76471363    -0.24210
C2047       C  0.00861925  0.47862361  0.77684941     0.18800
C2048       C  0.02833073  0.51742160  0.77688747     0.23840
C2049       C  0.01298769  0.53747129  0.76473579    -0.24160
C2050       C  0.97774861  0.51829544  0.75257291     0.18740
F2051       F  0.96292414  0.53706908  0.73998376    -0.14120
F2052       F  0.92442779  0.46157491  0.73990938    -0.16480
F2053       F  0.06196631  0.53547148  0.78949790    -0.16480
F2054       F  0.02333005  0.45981553  0.78954079    -0.14120
C2055       C  0.74360308  0.22878911  0.90163661     0.23890
C2056       C  0.76675579  0.23749673  0.92526888    -0.24210
C2057       C  0.80493310  0.25251458  0.92061407     0.18800
C2058       C  0.81901212  0.25467067  0.89377991     0.23840
C2059       C  0.79528704  0.24167241  0.87028278    -0.24160
C2060       C  0.75754155  0.23027152  0.87458245     0.18740
F2061       F  0.73374317  0.21958946  0.85280882    -0.14120
F2062       F  0.70692096  0.21707369  0.90467256    -0.16480
F2063       F  0.85624847  0.26888870  0.89129438    -0.16480
F2064       F  0.82889509  0.26351592  0.94217896    -0.14120
C2065       C  0.77330154  0.17836521  0.64054230     0.23890
C2066       C  0.76965441  0.19731998  0.61754558    -0.24210
C2067       C  0.76388514  0.22740450  0.62274198     0.18800
C2068       C  0.76223046  0.23836436  0.65015558     0.23840
C2069       C  0.76591201  0.21930541  0.67308514    -0.24160
C2070       C  0.77088590  0.18880982  0.66776971     0.18740
F2071       F  0.77537831  0.16996574  0.68889460    -0.14120
F2072       F  0.77933252  0.14941835  0.63675019    -0.16480
F2073       F  0.75710829  0.26780551  0.65428057    -0.16480
F2074       F  0.75850891  0.24546526  0.60139360    -0.14120
C2075       C  0.88866951  0.26814035  0.98541724     0.23890
C2076       C  0.88028006  0.23097026  0.98735362    -0.24210
C2077       C  0.90904647  0.22289273  0.48275644     0.18800
C2078       C  0.94582635  0.25184581  0.47817121     0.23840
C2079       C  0.95414320  0.28917568  0.97721067    -0.24160
C2080       C  0.92461482  0.29648019  0.97953071     0.18740
F2081       F  0.93087819  0.33175513  0.97765740    -0.14120
F2082       F  0.86215610  0.27754530  0.98991972    -0.16480
F2083       F  0.97357299  0.24366920  0.47679499    -0.16480
F2084       F  0.90216397  0.18744723  0.48464417    -0.14120
C2085       C  0.47425592  0.95949582  0.50381773     0.23890
C2086       C  0.45227175  0.97478242  0.51271712    -0.24210
C2087       C  0.47021986  0.01115012  0.52342883     0.18800
C2088       C  0.50885133  0.03180149  0.52477439     0.23840
C2089       C  0.53087912  0.01678060  0.51539163    -0.24160
C2090       C  0.51298089  0.98020033  0.00511660     0.18740
F2091       F  0.53268664  0.96421792  0.99599539    -0.14120
F2092       F  0.45859308  0.92436858  0.49369103    -0.16480
F2093       F  0.52441894  0.06677433  0.53521069    -0.16480
F2094       F  0.45059715  0.02715171  0.53271501    -0.14120
C2095       C  0.21437901  0.76490571  0.65074704     0.23890
C2096       C  0.18626846  0.77355509  0.65624372    -0.24210
C2097       C  0.16739360  0.77766049  0.63342375     0.18800
C2098       C  0.17632757  0.77341972  0.60608692     0.23840
C2099       C  0.20532571  0.76620259  0.60040292    -0.24160
C2100       C  0.22386305  0.76139445  0.62320112     0.18740
F2101       F  0.25181385  0.75400609  0.61879430    -0.14120
F2102       F  0.23189283  0.75859446  0.67197799    -0.16480
F2103       F  0.15763156  0.77841383  0.58517809    -0.16480
F2104       F  0.13992309  0.78585427  0.63754107    -0.14120
C2105       C  0.25682522  0.82601532  0.88100833     0.23890
C2106       C  0.23709669  0.80298223  0.90398083    -0.24210
C2107       C  0.21908771  0.76436226  0.89984364     0.18800
C2108       C  0.21682401  0.74961667  0.87313510     0.23840
C2109       C  0.23085963  0.77294577  0.84947286    -0.24160
C2110       C  0.25421847  0.81093808  0.85430927     0.18740
F2111       F  0.27561032  0.83321505  0.83340234    -0.14120
F2112       F  0.27886150  0.86325745  0.88417220    -0.16480
F2113       F  0.19917327  0.71222553  0.87047983    -0.16480
F2114       F  0.20232648  0.74055291  0.92136319    -0.14120
C2115       C  0.07457790  0.76869596  0.54349983     0.23890
C2116       C  0.10343615  0.76176406  0.53603397    -0.24210
C2117       C  0.09586755  0.72475570  0.53642467     0.18800
C2118       C  0.06011279  0.69540810  0.54207822     0.23840
C2119       C  0.03037909  0.70184741  0.54713709    -0.24160
C2120       C  0.03828651  0.73898869  0.54873706     0.18740
F2121       F  0.01043569  0.74649484  0.55317475    -0.14120
F2122       F  0.08090385  0.80401731  0.54407294    -0.16480
F2123       F  0.05414926  0.66018773  0.54121420    -0.16480
F2124       F  0.12321269  0.71673766  0.53111173    -0.14120
C2125       C  0.63179178  0.63786425  0.62269926     0.23890
C2126       C  0.59404903  0.62615784  0.61889990    -0.24210
C2127       C  0.56691598  0.59633175  0.63443535     0.18800
C2128       C  0.57782615  0.57878037  0.65402068     0.23840
C2129       C  0.61571572  0.59052812  0.65746546    -0.24160
C2130       C  0.64247706  0.61987346  0.64147471     0.18740
F2131       F  0.67929252  0.63289870  0.64548689    -0.14120
F2132       F  0.65848793  0.66718033  0.60817798    -0.16480
F2133       F  0.55169129  0.55044013  0.66951050    -0.16480
F2134       F  0.53029239  0.58387481  0.63022531    -0.14120
C2135       C  0.73651470  0.69431332  0.97524853     0.23890
C2136       C  0.69893318  0.66640466  0.97799630    -0.24210
C2137       C  0.69107371  0.63021437  0.48496951     0.18800
C2138       C  0.71940170  0.62289259  0.49145488     0.23840
C2139       C  0.75694774  0.65088083  0.98983075    -0.24160
C2140       C  0.76523221  0.68648073  0.98072113     0.18740
F2141       F  0.80106201  0.71415771  0.97827373    -0.14120
F2142       F  0.74558437  0.72952594  0.96849676    -0.16480
F2143       F  0.70969848  0.58771572  0.49901980    -0.16480
F2144       F  0.65555583  0.60151249  0.48645080    -0.14120
C2145       C  0.61784634  0.89411358  0.54350860     0.23890
C2146       C  0.64684718  0.88688256  0.53763717    -0.24210
C2147       C  0.68374544  0.91619240  0.54033866     0.18800
C2148       C  0.69130739  0.95250721  0.54661693     0.23840
C2149       C  0.66208885  0.95997543  0.55097350    -0.24160
C2150       C  0.62535513  0.92993725  0.55035826     0.18740
F2151       F  0.59636292  0.93576427  0.55476943    -0.14120
F2152       F  0.58188655  0.86638611  0.54239700    -0.16480
F2153       F  0.72705059  0.98082127  0.04591136    -0.16480
F2154       F  0.71246511  0.91023191  0.03500637    -0.14120
C2155       C  0.22185129  0.31475167  0.54417706     0.23890
C2156       C  0.22911550  0.35055163  0.53656108    -0.24210
C2157       C  0.26636345  0.37959130  0.53611741     0.18800
C2158       C  0.29548572  0.37269928  0.54115395     0.23840
C2159       C  0.28855028  0.33647317  0.54654945    -0.24160
C2160       C  0.25128986  0.30772806  0.54890581     0.18740
F2161       F  0.24333637  0.27232053  0.55355039    -0.14120
F2162       F  0.18637077  0.28607897  0.54543467    -0.16480
F2163       F  0.33092565  0.40147019  0.53935516    -0.16480
F2164       F  0.27486070  0.41499027  0.53055935    -0.14120
C2165       C  0.35186038  0.35765614  0.87386275     0.23890
C2166       C  0.36561730  0.39535712  0.86856900    -0.24210
C2167       C  0.39862977  0.42250169  0.88078604     0.18800
C2168       C  0.41735450  0.41150323  0.89901204     0.23840
C2169       C  0.40391630  0.37349967  0.90339717    -0.24160
C2170       C  0.37154455  0.34672382  0.89034671     0.18740
F2171       F  0.35701013  0.30993378  0.89578070    -0.14120
F2172       F  0.31917072  0.33133599  0.86280649    -0.16480
F2173       F  0.44786016  0.43745209  0.91268143    -0.16480
F2174       F  0.41258078  0.45900940  0.87488031    -0.14120
C2175       C  0.45290175  0.47801333  0.50959320     0.23890
C2176       C  0.47326252  0.46016800  0.51546755    -0.24210
C2177       C  0.51157045  0.48217190  0.52123034     0.18800
C2178       C  0.52912495  0.52075138  0.52033404     0.23840
C2179       C  0.50900613  0.53859184  0.51367930    -0.24160
C2180       C  0.47049237  0.51667372  0.50874939     0.18740
F2181       F  0.44944364  0.53242578  0.50317773    -0.14120
F2182       F  0.41587547  0.45822987  0.00452401    -0.16480
F2183       F  0.56615646  0.54043789  0.52549027    -0.16480
F2184       F  0.53272724  0.46663991  0.52716828    -0.14120
C2185       C  0.30722306  0.08487933  0.97617249     0.23890
C2186       C  0.33549004  0.10962918  0.99440767    -0.24210
C2187       C  0.35714260  0.09681711  0.50761593     0.18800
C2188       C  0.35153140  0.06144716  0.50259268     0.23960
C2189       C  0.32272767  0.03603639  0.98508764    -0.24160
C2190       C  0.30058962  0.04834977  0.97189588     0.18740
F2191       F  0.27286005  0.02533249  0.95459168    -0.14120
F2192       F  0.28600283  0.09588236  0.96236115    -0.16480
F2193       F  0.37474471  0.05233224  0.51567380    -0.16480
F2194       F  0.38471095  0.11857563  0.52555271    -0.14120
C2195       C  0.56701386  0.98768910  0.87573295     0.23890
C2196       C  0.57926606  0.96192956  0.87265050    -0.24210
C2197       C  0.61076271  0.96681605  0.88663145     0.18800
C2198       C  0.63089903  0.99796994  0.90261561     0.23840
C2199       C  0.61842225  0.02331122  0.90645231    -0.24160
C2200       C  0.58618595  0.01810776  0.89336703     0.18740
F2201       F  0.57335564  0.04195072  0.89789744    -0.14120
F2202       F  0.53733701  0.98369729  0.86120357    -0.16480
F2203       F  0.66271410  0.00345275  0.91472183    -0.16480
F2204       F  0.62419179  0.94331413  0.88250236    -0.14120
C2205       C  0.76466840  0.08255782  0.73668000     0.23890
C2206       C  0.75730218  0.11207321  0.73897694    -0.24210
C2207       C  0.72057451  0.10435070  0.73484051     0.18800
C2208       C  0.69168586  0.06796864  0.73029087     0.23840
C2209       C  0.69847560  0.03805073  0.72974453    -0.24160
C2210       C  0.73547937  0.04584364  0.73231932     0.18740
F2211       F  0.74295538  0.01760801  0.73308391    -0.14120
F2212       F  0.79964358  0.08882006  0.74058988    -0.16480
F2213       F  0.65647143  0.06165252  0.72775269    -0.16480
F2214       F  0.71241982  0.13214474  0.73555608    -0.14120
C2215       C  0.52455726  0.75725204  0.89935960     0.23890
C2216       C  0.55905454  0.75954457  0.90405412    -0.24210
C2217       C  0.57945500  0.75890339  0.88058644     0.18800
C2218       C  0.56649814  0.75712727  0.85355912     0.23840
C2219       C  0.53340913  0.75749560  0.84863951    -0.24160
C2220       C  0.51196164  0.75637431  0.87200541     0.18740
F2221       F  0.47925926  0.75565971  0.86837975    -0.14120
F2222       F  0.50292601  0.75577599  0.92113628    -0.16480
F2223       F  0.58835528  0.75826680  0.83218009    -0.16480
F2224       F  0.61310868  0.76139499  0.88353334    -0.14120
C2225       C  0.58242130  0.81328948  0.60687428     0.23890
C2226       C  0.54681999  0.78319692  0.60134779    -0.24210
C2227       C  0.52332883  0.76436587  0.62414328     0.18800
C2228       C  0.53558086  0.77469872  0.65159186     0.23840
C2229       C  0.57165698  0.80415779  0.65698309    -0.24160
C2230       C  0.59473496  0.82344112  0.63418539     0.18740
F2231       F  0.62973059  0.85212492  0.63828269    -0.14120
F2232       F  0.60649837  0.83170375  0.58591337    -0.16480
F2233       F  0.51164138  0.75653457  0.67282136    -0.16480
F2234       F  0.48861780  0.73529413  0.61985703    -0.14120
C2235       C  0.61665492  0.72775407  0.78803443     0.23890
C2236       C  0.64564534  0.76496362  0.78725050    -0.24210
C2237       C  0.68193596  0.77267450  0.79347617     0.18800
C2238       C  0.68930062  0.74348607  0.79824962     0.23840
C2239       C  0.66030479  0.70618237  0.79760675    -0.24160
C2240       C  0.62373530  0.69905395  0.79370952     0.18740
F2241       F  0.59452531  0.66376596  0.79425489    -0.14120
F2242       F  0.58093325  0.71883228  0.78337517    -0.16480
F2243       F  0.72497746  0.75164294  0.80166839    -0.16480
F2244       F  0.71055292  0.80821398  0.79337045    -0.14120
C2245       C  0.34030513  0.97329685  0.63293064     0.23890
C2246       C  0.36557847  0.96567606  0.61935461    -0.24210
C2247       C  0.40376669  0.98716158  0.62493899     0.18800
C2248       C  0.41634515  0.01562710  0.64478733     0.23840
C2249       C  0.39075118  0.02332400  0.65796795    -0.24160
C2250       C  0.35285365  0.00226407  0.65169953     0.18740
F2251       F  0.32786994  0.00984565  0.66400299    -0.14120
F2252       F  0.30354595  0.95402806  0.62668567    -0.16480
F2253       F  0.45289125  0.03496092  0.65149507    -0.16480
F2254       F  0.42848993  0.98053061  0.61121123    -0.14120
C2255       C  0.24699556  0.89669806  0.80069101     0.23890
C2256       C  0.21536332  0.88902831  0.78541348    -0.24210
C2257       C  0.21091691  0.91882681  0.77672517     0.18800
C2258       C  0.23901016  0.95573170  0.78196831     0.23840
C2259       C  0.27148908  0.96311379  0.79635895    -0.24160
C2260       C  0.27469915  0.93312566  0.80616692     0.18740
F2261       F  0.30570751  0.93919744  0.81989830    -0.14120
F2262       F  0.25128101  0.86847831  0.80986631    -0.16480
F2263       F  0.23595741  0.98411121  0.77097807    -0.16480
F2264       F  0.18075237  0.91229912  0.76164822    -0.14120
C2265       C  0.50833334  0.03392733  0.75791569     0.23890
C2266       C  0.47073951  0.01729139  0.76602471    -0.24210
C2267       C  0.45139486  0.97958443  0.77325447     0.18800
C2268       C  0.46937638  0.95886770  0.77262365     0.23840
C2269       C  0.50699099  0.97547174  0.76451082    -0.24160
C2270       C  0.52631722  0.01319167  0.75721051     0.18740
F2271       F  0.56230953  0.02975990  0.74869392    -0.14120
F2272       F  0.52745445  0.07009310  0.74995501    -0.16480
F2273       F  0.45025263  0.92280526  0.78084119    -0.16480
F2274       F  0.41544345  0.96308877  0.78185790    -0.14120
C2275       C  0.45936192  0.22307621  0.65072182     0.23890
C2276       C  0.44339819  0.22950664  0.67468140    -0.24210
C2277       C  0.41556063  0.23875732  0.67075022     0.18800
C2278       C  0.40205257  0.23880575  0.64416941     0.23840
C2279       C  0.41609794  0.22972570  0.62031729    -0.24160
C2280       C  0.44555642  0.22261837  0.62406599     0.18740
F2281       F  0.46130157  0.21518736  0.60198985    -0.14120
F2282       F  0.48736124  0.21538173  0.65301197    -0.16480
F2283       F  0.37473274  0.24751438  0.64213068    -0.16480
F2284       F  0.40018729  0.24658236  0.69274317    -0.14120
C2285       C  0.41684857  0.18151209  0.92329262     0.23890
C2286       C  0.44954339  0.21530662  0.92838180    -0.24210
C2287       C  0.47078813  0.23606449  0.90511238     0.18800
C2288       C  0.45832888  0.22456620  0.87767934     0.23840
C2289       C  0.42412454  0.19211109  0.87272154    -0.24160
C2290       C  0.40393949  0.17057476  0.89613203     0.18740
F2291       F  0.37057574  0.13910448  0.89304831    -0.14120
F2292       F  0.39548691  0.16008281  0.94467795    -0.16480
F2293       F  0.47978454  0.24530819  0.85607731    -0.16480
F2294       F  0.50325006  0.26826142  0.90891721    -0.14120
C2295       C  0.30500263  0.22651111  0.72985832     0.23890
C2296       C  0.34090195  0.23449982  0.73784163    -0.24210
C2297       C  0.36953526  0.27186608  0.73766116     0.18800
C2298       C  0.36251823  0.30035060  0.73052702     0.23840
C2299       C  0.32617348  0.29291229  0.72460231    -0.24160
C2300       C  0.29759391  0.25541044  0.72371130     0.18740
F2301       F  0.26206368  0.24672614  0.71867220    -0.14120
F2302       F  0.27659109  0.19087104  0.72950536    -0.16480
F2303       F  0.39152448  0.33574323  0.73055247    -0.16480
F2304       F  0.40489260  0.28110843  0.74413900    -0.14120
loop_ 
_geom_bond_atom_site_label_1 
_geom_bond_atom_site_label_2 
_geom_bond_distance 
_geom_bond_site_symmetry_2 
_ccdc_geom_bond_type 
Zr1           O2   2.434       .  S
Zr1           O3   2.435       .  S
Zr1           O4   2.494       .  S
Zr1           O7   2.517       .  S
Zr1           O9   2.382       .  S
Zr1          O10   2.404       .  S
Zr1          O11   2.424       .  S
Zr1          O12   2.383       .  S
O2           H58   0.990       .  S
O2           H66   0.990       .  S
O3           C23   1.288       .  A
O4           C25   1.292       .  A
O5          Zr15   2.406       .  S
O5           C24   1.282       .  A
O6          Zr14   2.395       .  S
O6           C25   1.267       .  A
O7           C24   1.304       .  A
O8          Zr16   2.466       .  S
O8           C23   1.289       .  A
O9          Zr14   2.396       .  S
O9          Zr16   2.349       .  S
O10         Zr15   2.408       .  S
O10         Zr16   2.380       .  S
O10          H45   0.966       .  S
O11         Zr14   2.416       .  S
O11         Zr31   2.396       .  S
O11          H48   0.966       .  S
O12         Zr15   2.386       .  S
O12         Zr31   2.366       .  S
Zr13         O38   2.444   1_545  S
Zr13         O32   2.439       .  S
Zr13         O40   2.401       .  S
Zr13         O28   2.379       .  S
Zr13         O19   2.398       .  S
Zr13         O20   2.411       .  S
Zr13         O21   2.366       .  S
Zr13         O22   2.364       .  S
Zr14         O33   2.436       .  S
Zr14         O26   2.433       .  S
Zr14         O27   2.437       .  S
Zr14         O20   2.397       .  S
Zr14         O21   2.370       .  S
Zr15         O17   2.437       .  S
Zr15         O39   2.437       .  S
Zr15         O41   2.474       .  S
Zr15         O19   2.362       .  S
Zr15         O22   2.395       .  S
Zr16         O42   2.435       .  S
Zr16         O43   2.435       .  S
Zr16         O18   2.437       .  S
Zr16         O19   2.393       .  S
Zr16         O20   2.423       .  S
O17          H54   0.990       .  S
O18          H49   0.990       .  S
O18          H63   0.990       .  S
O20          H46   0.966       .  S
O21         Zr31   2.369       .  S
O22         Zr31   2.401       .  S
O22          H47   0.966       .  S
C23        C1144   1.501       .  S
C24        C1137   1.506       .  S
C25        C1124   1.498       .  S
O26          H62   0.989       .  S
O27          C29   1.283       .  A
O28          C29   1.273       .  A
C29        C1097   1.451       .  S
O30         Zr31   2.440       .  S
O30          H59   0.990       .  S
Zr31         O34   2.438       .  S
Zr31         O35   2.439       .  S
Zr31         O36   2.400       .  S
O32          C37   1.285       .  A
O33          H50   0.990       .  S
O33          H65   0.990       .  S
O34          H51   0.990       .  S
O35          H55   0.990       .  S
O35          H64   0.990       .  S
O36          C37   1.278       .  A
C37        C1114   1.471       .  S
O38          H57   0.990       .  S
O38          H61   0.990       .  S
O39          H53   0.990       .  S
O39          H60   0.990       .  S
O40          C44   1.276       .  A
O41          C44   1.289       .  A
O42          H52   0.990       .  S
O43          H56   0.990       .  S
C44        C1107   1.480   1_545  S
Zr67         O68   2.436       .  S
Zr67         O69   2.421       .  S
Zr67         O70   2.483       .  S
Zr67         O73   2.490       .  S
Zr67         O75   2.401       .  S
Zr67         O76   2.400       .  S
Zr67         O77   2.415       .  S
Zr67         O78   2.413       .  S
O68         H124   0.990       .  S
O68         H132   0.990       .  S
O69          C89   1.284       .  A
O70          C91   1.297       .  A
O71         Zr81   2.400       .  S
O71          C90   1.268       .  A
O72         Zr80   2.416       .  S
O72          C91   1.284       .  A
O73          C90   1.290       .  A
O74         Zr82   2.462       .  S
O74          C89   1.288       .  A
O75         Zr80   2.414       .  S
O75         Zr82   2.380       .  S
O76         Zr81   2.392       .  S
O76         Zr82   2.342       .  S
O76         H111   0.962       .  S
O77         Zr80   2.418       .  S
O77         Zr97   2.362       .  S
O77         H114   0.963       .  S
O78         Zr81   2.401       .  S
O78         Zr97   2.393       .  S
Zr79        O104   2.441   1_565  S
Zr79         O98   2.435       .  S
Zr79        O106   2.377       .  S
Zr79         O94   2.407       .  S
Zr79         O85   2.407       .  S
Zr79         O86   2.400       .  S
Zr79         O87   2.361       .  S
Zr79         O88   2.372       .  S
Zr80         O99   2.435       .  S
Zr80         O92   2.435       .  S
Zr80         O93   2.496       .  S
Zr80         O86   2.376       .  S
Zr80         O87   2.390       .  S
Zr81         O83   2.436       .  S
Zr81        O105   2.440       .  S
Zr81        O107   2.406       .  S
Zr81         O85   2.390       .  S
Zr81         O88   2.369       .  S
Zr82        O108   2.436       .  S
Zr82        O109   2.439       .  S
Zr82         O84   2.438       .  S
Zr82         O85   2.421       .  S
Zr82         O86   2.387       .  S
O83         H120   0.990       .  S
O84         H115   0.990       .  S
O84         H129   0.990       .  S
O86         H112   0.964       .  S
O87         Zr97   2.397       .  S
O88         Zr97   2.360       .  S
O88         H113   0.966       .  S
C89        C1084   1.493       .  S
C90        C1067   1.499       .  S
C91        C1077   1.487       .  S
O92         H128   0.990       .  S
O93          C95   1.296       .  A
O94          C95   1.280       .  A
C95        C1057   1.492   1_565  S
O96         Zr97   2.440       .  S
O96         H125   0.990       .  S
Zr97        O100   2.436       .  S
Zr97        O101   2.439       .  S
Zr97        O102   2.403       .  S
O98         C103   1.285       .  A
O99         H116   0.990       .  S
O99         H131   0.990       .  S
O100        H117   0.990       .  S
O101        H121   0.990       .  S
O101        H130   0.990       .  S
O102        C103   1.278       .  A
C103       C1117   1.473       .  S
O104        H123   0.990       .  S
O104        H127   0.990   1_545  S
O105        H119   0.989       .  S
O105        H126   0.987       .  S
O106        C110   1.272       .  A
O107        C110   1.279       .  A
O108        H118   0.990       .  S
O109        H122   0.990       .  S
C110       C1044   1.432       .  S
Zr133       O134   2.436       .  S
Zr133       O135   2.415       .  S
Zr133       O136   2.486       .  S
Zr133      O1291   2.491   1_554  S
Zr133       O141   2.399       .  S
Zr133       O143   2.413       .  S
Zr133      O1294   2.402   1_554  S
Zr133      O1296   2.412   1_554  S
O134        H190   0.990       .  S
O134        H198   0.990       .  S
O135        C155   1.283   1_554  A
O136        C157   1.298       .  A
O137       Zr147   2.398       .  S
O137        C156   1.267       .  A
O138       Zr146   2.423       .  S
O138        C157   1.285       .  A
O139      Zr1285   2.491       .  S
O139        C156   1.290       .  A
O140       Zr148   2.468       .  S
O140       C1307   1.288       .  A
O141       Zr146   2.414       .  S
O141      Zr1300   2.381   1_554  S
O142       Zr147   2.397       .  S
O142       Zr148   2.343       .  S
O142      Zr1285   2.402       .  S
O142        H177   0.963       .  S
O143       Zr146   2.419       .  S
O143       Zr163   2.356       .  S
O143        H180   0.962       .  S
O144       Zr147   2.403       .  S
O144      Zr1285   2.412       .  S
O144      Zr1315   2.390       .  S
Zr145       O170   2.442       .  S
Zr145       O164   2.429       .  S
Zr145       O172   2.375       .  S
Zr145      O1312   2.397       .  S
Zr145       O151   2.402       .  S
Zr145       O154   2.372       .  S
Zr145      O1304   2.401       .  S
Zr145      O1305   2.360       .  S
Zr146       O165   2.435       .  S
Zr146       O158   2.435       .  S
Zr146       O159   2.499       .  S
Zr146       O152   2.379       .  S
Zr146       O153   2.387       .  S
Zr147       O149   2.436       .  S
Zr147       O171   2.441       .  S
Zr147       O173   2.411       .  S
Zr147       O151   2.386       .  S
Zr147       O154   2.370       .  S
Zr148       O174   2.436       .  S
Zr148       O175   2.438       .  S
Zr148      O1302   2.437       .  S
Zr148       O151   2.420       .  S
Zr148      O1293   2.381       .  S
Zr148      O1304   2.393       .  S
O149        H186   0.990       .  S
O150      Zr1300   2.437   1_554  S
O150        H181   0.990       .  S
O150        H195   0.990       .  S
O152      Zr1297   2.401   1_554  S
O152      Zr1300   2.393   1_554  S
O152        H178   0.964       .  S
O153       Zr163   2.394       .  S
O153      Zr1297   2.360   1_554  S
O154      Zr1315   2.356       .  S
O154        H179   0.966       .  S
C155       O1292   1.288       .  A
C155       C2186   1.506       .  S
C156       C1134   1.500       .  S
C157       C1127   1.500       .  S
O158        H194   0.990       .  S
O159        C161   1.296       .  A
O160      Zr1297   2.397   1_554  S
O160        C161   1.279       .  A
C161       C1007   1.494       .  S
O162       Zr163   2.439       .  S
O162        H191   0.990       .  S
Zr163       O166   2.437       .  S
Zr163      O1319   2.441   1_554  S
Zr163       O168   2.398       .  S
Zr163      O1296   2.390   1_554  S
Zr163      O1306   2.356   1_554  S
O164        C169   1.284       .  A
O165        H182   0.990       .  S
O165        H197   0.990       .  S
O166        H183   0.990       .  S
O167      Zr1315   2.441       .  S
O167        H187   0.990       .  S
O167        H196   0.990       .  S
O168       C1321   1.277       .  A
C169       O1320   1.277       .  A
C169       C2176   1.483       .  S
O170        H189   0.990       .  S
O170        H193   0.990       .  S
O171        H185   0.988       .  S
O171        H192   0.987       .  S
O172        C176   1.272       .  A
O173        C176   1.280       .  A
O174        H184   0.990       .  S
O175        H188   0.990       .  S
C176       C1017   1.432       .  S
Zr199       O200   2.434   1_554  S
Zr199       O201   2.432       .  S
Zr199       O202   2.489       .  S
Zr199      O1357   2.507   1_554  S
Zr199       O207   2.382       .  S
Zr199       O208   2.406   1_554  S
Zr199       O209   2.424       .  S
Zr199      O1362   2.385   1_554  S
O200        H256   0.990   1_556  S
O200        H264   0.990   1_556  S
O201        C221   1.287       .  A
O202        C223   1.290       .  A
O203       Zr213   2.408       .  S
O203        C222   1.283       .  A
O204       Zr212   2.395       .  S
O204        C223   1.266       .  A
O205      Zr1351   2.508       .  S
O205        C222   1.302       .  A
O206       Zr214   2.463       .  S
O206        C221   1.289       .  A
O207       Zr212   2.400       .  S
O207       Zr214   2.351       .  S
O208       Zr214   2.379   1_556  S
O208      Zr1365   2.411       .  S
O208       H1395   0.966       .  S
O209       Zr212   2.422       .  S
O209       Zr229   2.393   1_554  S
O209        H246   0.966       .  S
O210       Zr213   2.390       .  S
O210      Zr1351   2.385       .  S
O210      Zr1381   2.366       .  S
Zr211       O236   2.440       .  S
Zr211       O230   2.427       .  S
Zr211       O238   2.391   1_554  S
Zr211       O226   2.362       .  S
Zr211       O217   2.399       .  S
Zr211       O218   2.400       .  S
Zr211       O219   2.364       .  S
Zr211       O220   2.363   1_554  S
Zr212       O231   2.435       .  S
Zr212       O224   2.435       .  S
Zr212       O225   2.454       .  S
Zr212       O218   2.392       .  S
Zr212       O219   2.367       .  S
Zr213       O215   2.435       .  S
Zr213       O237   2.437       .  S
Zr213       O239   2.485       .  S
Zr213      O1360   2.411       .  S
Zr213      O1369   2.369       .  S
Zr213      O1372   2.392       .  S
Zr214       O240   2.435       .  S
Zr214       O241   2.435       .  S
Zr214       O216   2.437       .  S
Zr214       O217   2.400       .  S
Zr214       O218   2.418       .  S
O215        H252   0.990       .  S
O216        H247   0.990       .  S
O216        H261   0.990       .  S
O217      Zr1365   2.369   1_554  S
O218        H244   0.966       .  S
O219       Zr229   2.371   1_554  S
O220       Zr229   2.394       .  S
O220      Zr1365   2.392       .  S
O220       H1397   0.966       .  S
C221        C994   1.495       .  S
C222       C1064   1.501       .  S
C223       C1074   1.489       .  S
O224        H260   0.990       .  S
O225        C227   1.287       .  A
O226        C227   1.272       .  A
C227        C974   1.455       .  S
O228       Zr229   2.439       .  S
O228        H257   0.990       .  S
Zr229       O232   2.438   1_556  S
Zr229      O1385   2.439       .  S
Zr229       O234   2.403   1_556  S
Zr229      O1362   2.366       .  S
O230        C235   1.283       .  A
O231        H248   0.990       .  S
O231        H263   0.990       .  S
O232        H249   0.990       .  S
O233      Zr1381   2.439       .  S
O233        H253   0.990       .  S
O233        H262   0.990       .  S
O234        C235   1.278       .  A
C235       C1027   1.482       .  S
O236        H255   0.990       .  S
O236        H259   0.990       .  S
O237        H251   0.990       .  S
O237        H258   0.990       .  S
O238       C1394   1.272       .  A
O239        C242   1.290       .  A
O240        H250   0.990       .  S
O241        H254   0.990       .  S
C242       O1390   1.272       .  A
C242        C984   1.498       .  S
H243       O1360   0.966       .  S
H245       O1372   0.966       .  S
Zr265       O266   2.434   1_554  S
Zr265       O267   2.425       .  S
Zr265       O268   2.498       .  S
Zr265      O1423   2.497   1_554  S
Zr265       O273   2.377       .  S
Zr265       O274   2.407   1_554  S
Zr265       O275   2.422       .  S
Zr265      O1428   2.384   1_554  S
O266        H322   0.990       .  S
O266        H330   0.990   1_556  S
O267        C287   1.286       .  A
O268        C289   1.291       .  A
O269       Zr279   2.436       .  S
O269        C288   1.288       .  A
O270       Zr278   2.392       .  S
O270        C289   1.265       .  A
O271      Zr1417   2.497       .  S
O271        C288   1.301       .  A
O272       Zr280   2.470       .  S
O272        C287   1.290       .  A
O273       Zr278   2.397       .  S
O273       Zr280   2.350       .  S
O274       Zr280   2.381   1_556  S
O274      Zr1431   2.415       .  S
O274       H1461   0.966       .  S
O275       Zr278   2.415       .  S
O275       Zr295   2.397   1_554  S
O275        H312   0.966       .  S
O276       Zr279   2.386       .  S
O276      Zr1417   2.384       .  S
O276      Zr1447   2.363       .  S
Zr277       O302   2.440       .  S
Zr277       O296   2.426       .  S
Zr277       O304   2.394   1_554  S
Zr277       O292   2.385       .  S
Zr277       O283   2.402       .  S
Zr277       O284   2.400       .  S
Zr277       O285   2.364       .  S
Zr277       O286   2.368   1_554  S
Zr278       O297   2.434       .  S
Zr278       O290   2.434       .  S
Zr278       O291   2.434       .  S
Zr278       O284   2.390       .  S
Zr278       O285   2.362       .  S
Zr279       O281   2.435       .  S
Zr279       O303   2.436       .  S
Zr279       O305   2.500       .  S
Zr279      O1426   2.415       .  S
Zr279      O1435   2.371       .  S
Zr279      O1438   2.394       .  S
Zr280       O306   2.435       .  S
Zr280       O307   2.435       .  S
Zr280       O282   2.436       .  S
Zr280       O283   2.399       .  S
Zr280       O284   2.424       .  S
O281        H318   0.990       .  S
O282        H313   0.990       .  S
O282        H327   0.990       .  S
O283      Zr1431   2.371   1_554  S
O284        H310   0.966       .  S
O285       Zr295   2.365   1_554  S
O286       Zr295   2.393       .  S
O286      Zr1431   2.394       .  S
O286       H1463   0.966       .  S
C287        C964   1.498       .  S
C288        C954   1.506       .  S
C289        C947   1.493       .  S
O290        H326   0.990       .  S
O291        C293   1.284       .  A
O292        C293   1.274       .  A
C293       C1094   1.448       .  S
O294       Zr295   2.439       .  S
O294        H323   0.990       .  S
Zr295       O298   2.437   1_556  S
Zr295      O1451   2.439       .  S
Zr295       O300   2.409   1_556  S
Zr295      O1428   2.363       .  S
O296        C301   1.284       .  A
O297        H314   0.990       .  S
O297        H329   0.990       .  S
O298        H315   0.990       .  S
O299      Zr1447   2.439       .  S
O299        H319   0.990       .  S
O299        H328   0.990       .  S
O300        C301   1.280       .  A
C301        C934   1.487       .  S
O302        H321   0.990   1_565  S
O302        H325   0.990       .  S
O303        H317   0.990       .  S
O303        H324   0.990       .  S
O304       C1460   1.272       .  A
O305        C308   1.293       .  A
O306        H316   0.990       .  S
O307        H320   0.990       .  S
C308       O1456   1.272       .  A
C308       C1037   1.506   1_565  S
H309       O1426   0.966       .  S
H311       O1438   0.966       .  S
Zr331       O332   2.437       .  S
Zr331       O333   2.421       .  S
Zr331       O334   2.489       .  S
Zr331      O1489   2.490   1_554  S
Zr331       O339   2.400       .  S
Zr331       O341   2.413       .  S
Zr331      O1492   2.402   1_554  S
Zr331      O1494   2.411   1_554  S
O332        H388   0.990       .  S
O332        H396   0.990       .  S
O333        C353   1.284   1_554  A
O334        C355   1.298       .  A
O335       Zr345   2.397       .  S
O335        C354   1.268       .  A
O336       Zr344   2.408       .  S
O336        C355   1.283       .  A
O337      Zr1483   2.490       .  S
O337        C354   1.291       .  A
O338       Zr346   2.456       .  S
O338       C1505   1.287       .  A
O339       Zr344   2.415       .  S
O339      Zr1498   2.379   1_554  S
O340       Zr345   2.400       .  S
O340       Zr346   2.350       .  S
O340      Zr1483   2.402       .  S
O340        H375   0.965       .  S
O341       Zr344   2.421       .  S
O341       Zr361   2.364       .  S
O341        H378   0.963       .  S
O342       Zr345   2.405       .  S
O342      Zr1483   2.411       .  S
O342      Zr1513   2.387       .  S
Zr343       O368   2.442   1_545  S
Zr343       O362   2.439       .  S
Zr343       O370   2.353       .  S
Zr343      O1510   2.391       .  S
Zr343       O349   2.405       .  S
Zr343       O352   2.365       .  S
Zr343      O1502   2.396       .  S
Zr343      O1503   2.355       .  S
Zr344       O363   2.434       .  S
Zr344       O356   2.434       .  S
Zr344       O357   2.499       .  S
Zr344       O350   2.376       .  S
Zr344       O351   2.386       .  S
Zr345       O347   2.437       .  S
Zr345       O369   2.442       .  S
Zr345       O371   2.420       .  S
Zr345       O349   2.389       .  S
Zr345       O352   2.375       .  S
Zr346       O372   2.436       .  S
Zr346       O373   2.435       .  S
Zr346      O1500   2.437       .  S
Zr346       O349   2.415       .  S
Zr346      O1491   2.379       .  S
Zr346      O1502   2.388       .  S
O347        H384   0.990       .  S
O348      Zr1498   2.437   1_554  S
O348        H379   0.990   1_554  S
O348        H393   0.990       .  S
O350      Zr1495   2.396   1_554  S
O350      Zr1498   2.388   1_554  S
O350        H376   0.965       .  S
O351       Zr361   2.395       .  S
O351      Zr1495   2.355   1_554  S
O352      Zr1513   2.367       .  S
O352        H377   0.966       .  S
C353       O1490   1.287       .  A
C353       C2076   1.491       .  S
C354        C904   1.502       .  S
C355        C914   1.490       .  S
O356        H392   0.990       .  S
O357        C359   1.295   1_545  A
O358      Zr1495   2.391   1_554  S
O358        C359   1.276   1_545  A
C359        C997   1.492       .  S
O360       Zr361   2.440       .  S
O360        H389   0.990       .  S
Zr361       O364   2.436       .  S
Zr361      O1517   2.440       .  S
Zr361       O366   2.397       .  S
Zr361      O1494   2.387   1_554  S
Zr361      O1504   2.367   1_554  S
O362        C367   1.285       .  A
O363        H380   0.990       .  S
O363        H395   0.990       .  S
O364        H381   0.990       .  S
O365      Zr1513   2.440       .  S
O365        H385   0.990       .  S
O365        H394   0.990       .  S
O366       C1519   1.277       .  A
C367       O1518   1.277       .  A
C367       C2089   1.486       .  S
O368        H387   0.990       .  S
O368        H391   0.989       .  S
O369        H383   0.989       .  S
O369        H390   0.988       .  S
O370        C374   1.269       .  A
O371        C374   1.279       .  A
O372        H382   0.990       .  S
O373        H386   0.990       .  S
C374       C1047   1.435       .  S
Zr397       O398   2.434       .  S
Zr397       O399   2.427       .  S
Zr397       O400   2.485       .  S
Zr397       O403   2.504       .  S
Zr397       O405   2.382       .  S
Zr397       O406   2.407       .  S
Zr397       O407   2.426       .  S
Zr397       O408   2.382       .  S
O398        H454   0.990       .  S
O398        H462   0.990       .  S
O399        C419   1.286       .  A
O400        C421   1.289       .  A
O401       Zr411   2.415       .  S
O401        C420   1.283       .  A
O402       Zr410   2.398       .  S
O402        C421   1.266       .  A
O403        C420   1.301       .  A
O404       Zr412   2.475       .  S
O404        C419   1.292       .  A
O405       Zr410   2.396       .  S
O405       Zr412   2.348       .  S
O406       Zr411   2.408       .  S
O406       Zr412   2.381       .  S
O406        H441   0.966       .  S
O407       Zr410   2.421       .  S
O407       Zr427   2.394       .  S
O407        H444   0.966       .  S
O408       Zr411   2.386       .  S
O408       Zr427   2.362       .  S
Zr409       O434   2.443       .  S
Zr409       O428   2.440       .  S
Zr409       O436   2.387       .  S
Zr409       O424   2.376       .  S
Zr409       O415   2.400       .  S
Zr409       O416   2.405       .  S
Zr409       O417   2.364       .  S
Zr409       O418   2.366       .  S
Zr410       O429   2.437       .  S
Zr410       O422   2.436       .  S
Zr410       O423   2.451       .  S
Zr410       O416   2.393       .  S
Zr410       O417   2.364       .  S
Zr411       O413   2.435       .  S
Zr411       O435   2.437       .  S
Zr411       O437   2.483       .  S
Zr411       O415   2.369       .  S
Zr411       O418   2.391       .  S
Zr412       O438   2.435       .  S
Zr412       O439   2.434       .  S
Zr412       O414   2.436       .  S
Zr412       O415   2.399       .  S
Zr412       O416   2.432       .  S
O413        H450   0.990       .  S
O414        H445   0.990       .  S
O414        H459   0.990       .  S
O416        H442   0.966       .  S
O417       Zr427   2.363       .  S
O418       Zr427   2.396       .  S
O418        H443   0.966       .  S
C419       C1054   1.497       .  S
C420        C907   1.506       .  S
C421        C917   1.490       .  S
O422        H458   0.990       .  S
O423        C425   1.288       .  A
O424        C425   1.274       .  A
C425        C877   1.482       .  S
O426       Zr427   2.439       .  S
O426        H455   0.990       .  S
Zr427       O430   2.438       .  S
Zr427       O431   2.439       .  S
Zr427       O432   2.402       .  S
O428        C433   1.285       .  A
O429        H446   0.990       .  S
O429        H461   0.990       .  S
O430        H447   0.990       .  S
O431        H451   0.990       .  S
O431        H460   0.990       .  S
O432        C433   1.278       .  A
C433        C894   1.468       .  S
O434        H453   0.990   1_655  S
O434        H457   0.990       .  S
O435        H449   0.990       .  S
O435        H456   0.990       .  S
O436        C440   1.274       .  A
O437        C440   1.291       .  A
O438        H448   0.990       .  S
O439        H452   0.990       .  S
C440        C884   1.492   1_655  S
Zr463       O464   2.437       .  S
Zr463       O465   2.439       .  S
Zr463       O466   2.504       .  S
Zr463       O469   2.515       .  S
Zr463       O471   2.405       .  S
Zr463       O472   2.399       .  S
Zr463       O473   2.422       .  S
Zr463       O474   2.413       .  S
O464        H520   0.990       .  S
O464        H528   0.990       .  S
O465        C485   1.287       .  A
O466        C487   1.301       .  A
O467       Zr477   2.395       .  S
O467        C486   1.267       .  A
O468       Zr476   2.401       .  S
O468        C487   1.281       .  A
O469        C486   1.295       .  A
O470       Zr478   2.447       .  S
O470        C485   1.285       .  A
O471       Zr476   2.418       .  S
O471       Zr478   2.377       .  S
O472       Zr477   2.400       .  S
O472       Zr478   2.357       .  S
O472        H507   0.965       .  S
O473       Zr476   2.426       .  S
O473       Zr493   2.367       .  S
O473        H510   0.963       .  S
O474       Zr477   2.402       .  S
O474       Zr493   2.391       .  S
Zr475       O500   2.441   1_455  S
Zr475       O494   2.438       .  S
Zr475       O502   2.361       .  S
Zr475       O490   2.400   1_455  S
Zr475       O481   2.401       .  S
Zr475       O482   2.402       .  S
Zr475       O483   2.357       .  S
Zr475       O484   2.364       .  S
Zr476       O495   2.435       .  S
Zr476       O488   2.435       .  S
Zr476       O489   2.499       .  S
Zr476       O482   2.380       .  S
Zr476       O483   2.387       .  S
Zr477       O479   2.438       .  S
Zr477       O501   2.441       .  S
Zr477       O503   2.417       .  S
Zr477       O481   2.381       .  S
Zr477       O484   2.364       .  S
Zr478       O504   2.436       .  S
Zr478       O505   2.435       .  S
Zr478       O480   2.437       .  S
Zr478       O481   2.411       .  S
Zr478       O482   2.388       .  S
O479        H516   0.990       .  S
O480        H511   0.990       .  S
O480        H525   0.990       .  S
O482        H508   0.965       .  S
O483       Zr493   2.390       .  S
O484       Zr493   2.363       .  S
O484        H509   0.966       .  S
C485       C1104   1.485       .  S
C486        C957   1.508       .  S
C487        C944   1.491       .  S
O488        H524   0.990       .  S
O489        C491   1.292   1_455  A
O490        C491   1.272       .  A
C491        C864   1.510       .  S
O492       Zr493   2.440       .  S
O492        H521   0.990       .  S
Zr493       O496   2.437       .  S
Zr493       O497   2.439       .  S
Zr493       O498   2.410       .  S
O494        C499   1.286       .  A
O495        H512   0.990       .  S
O495        H527   0.990       .  S
O496        H513   0.990       .  S
O497        H517   0.990       .  S
O497        H526   0.990       .  S
O498        C499   1.279       .  A
C499        C897   1.468       .  S
O500        H519   0.988       .  S
O500        H523   0.989       .  S
O501        H515   0.989       .  S
O501        H522   0.988       .  S
O502        C506   1.272       .  A
O503        C506   1.279       .  A
O504        H514   0.990       .  S
O505        H518   0.990       .  S
C506        C854   1.429       .  S
Zr529       O530   2.436       .  S
Zr529       O531   2.427       .  S
Zr529       O532   2.494       .  S
Zr529      O1687   2.496   1_554  S
Zr529       O537   2.401       .  S
Zr529       O539   2.417       .  S
Zr529      O1690   2.401   1_554  S
Zr529      O1692   2.415   1_554  S
O530        H586   0.990       .  S
O530        H594   0.990       .  S
O531        C551   1.286   1_554  A
O532        C553   1.299       .  A
O533       Zr543   2.398       .  S
O533        C552   1.268       .  A
O534       Zr542   2.418       .  S
O534        C553   1.284       .  A
O535      Zr1681   2.496       .  S
O535        C552   1.292       .  A
O536       Zr544   2.456       .  S
O536       C1703   1.287       .  A
O537       Zr542   2.414       .  S
O537      Zr1696   2.381   1_554  S
O538       Zr543   2.394       .  S
O538       Zr544   2.345       .  S
O538      Zr1681   2.401       .  S
O538        H573   0.964       .  S
O539       Zr542   2.418       .  S
O539       Zr559   2.360       .  S
O539        H576   0.962       .  S
O540       Zr543   2.402       .  S
O540      Zr1681   2.415       .  S
O540      Zr1711   2.397       .  S
Zr541       O566   2.443       .  S
Zr541       O560   2.430       .  S
Zr541       O568   2.376       .  S
Zr541      O1708   2.402       .  S
Zr541       O547   2.400       .  S
Zr541       O550   2.371       .  S
Zr541      O1700   2.400       .  S
Zr541      O1701   2.361       .  S
Zr542       O561   2.435       .  S
Zr542       O554   2.435       .  S
Zr542       O555   2.496       .  S
Zr542       O548   2.378       .  S
Zr542       O549   2.389       .  S
Zr543       O545   2.436       .  S
Zr543       O567   2.441       .  S
Zr543       O569   2.409       .  S
Zr543       O547   2.385       .  S
Zr543       O550   2.370       .  S
Zr544       O570   2.436       .  S
Zr544       O571   2.438       .  S
Zr544      O1698   2.437       .  S
Zr544       O547   2.416       .  S
Zr544      O1689   2.381       .  S
Zr544      O1700   2.389       .  S
O545        H582   0.990       .  S
O546      Zr1696   2.437   1_554  S
O546        H577   0.990   1_554  S
O546        H591   0.990       .  S
O548      Zr1693   2.400   1_554  S
O548      Zr1696   2.389   1_554  S
O548        H574   0.964       .  S
O549       Zr559   2.394       .  S
O549      Zr1693   2.361   1_554  S
O550      Zr1711   2.359       .  S
O550        H575   0.966       .  S
C551       O1688   1.287       .  A
C551       C2139   1.495       .  S
C552        C837   1.504       .  S
C553        C847   1.495       .  S
O554        H590   0.990       .  S
O555        C557   1.296       .  A
O556      Zr1693   2.402   1_554  S
O556        C557   1.280       .  A
C557        C967   1.495   1_655  S
O558       Zr559   2.439       .  S
O558        H587   0.990       .  S
Zr559       O562   2.437       .  S
Zr559      O1715   2.440       .  S
Zr559       O564   2.409       .  S
Zr559      O1692   2.397   1_554  S
Zr559      O1702   2.359   1_554  S
O560        C565   1.283       .  A
O561        H578   0.990       .  S
O561        H593   0.990       .  S
O562        H579   0.990       .  S
O563      Zr1711   2.440       .  S
O563        H583   0.990       .  S
O563        H592   0.990       .  S
O564       C1717   1.278       .  A
C565       O1716   1.278       .  A
C565       C1976   1.459       .  S
O566        H585   0.990       .  S
O566        H589   0.990       .  S
O567        H581   0.989       .  S
O567        H588   0.988       .  S
O568        C572   1.272       .  A
O569        C572   1.279       .  A
O570        H580   0.990       .  S
O571        H584   0.990       .  S
C572        C857   1.431       .  S
Zr595       O596   2.434   1_554  S
Zr595       O597   2.428       .  S
Zr595       O598   2.489       .  S
Zr595      O1753   2.501   1_554  S
Zr595       O603   2.380       .  S
Zr595       O604   2.405   1_554  S
Zr595       O605   2.426       .  S
Zr595      O1758   2.387   1_554  S
O596        H652   0.990   1_556  S
O596        H660   0.990   1_556  S
O597        C617   1.287       .  A
O598        C619   1.289       .  A
O599       Zr609   2.421       .  S
O599        C618   1.285       .  A
O600       Zr608   2.398       .  S
O600        C619   1.266       .  A
O601      Zr1747   2.501       .  S
O601        C618   1.301       .  A
O602       Zr610   2.467       .  S
O602        C617   1.290       .  A
O603       Zr608   2.395       .  S
O603       Zr610   2.349       .  S
O604       Zr610   2.383   1_556  S
O604      Zr1761   2.407       .  S
O604       H1791   0.966       .  S
O605       Zr608   2.420       .  S
O605       Zr625   2.397   1_554  S
O605        H642   0.966       .  S
O606       Zr609   2.387       .  S
O606      Zr1747   2.387       .  S
O606      Zr1777   2.365       .  S
Zr607       O632   2.442   1_455  S
Zr607       O626   2.432       .  S
Zr607       O634   2.389   1_454  S
Zr607       O622   2.380       .  S
Zr607       O613   2.397       .  S
Zr607       O614   2.400       .  S
Zr607       O615   2.364       .  S
Zr607       O616   2.369   1_554  S
Zr608       O627   2.438       .  S
Zr608       O620   2.435       .  S
Zr608       O621   2.446       .  S
Zr608       O614   2.394       .  S
Zr608       O615   2.365       .  S
Zr609       O611   2.435       .  S
Zr609       O633   2.437       .  S
Zr609       O635   2.481       .  S
Zr609      O1756   2.407       .  S
Zr609      O1765   2.372       .  S
Zr609      O1768   2.390       .  S
Zr610       O636   2.435       .  S
Zr610       O637   2.434       .  S
Zr610       O612   2.436       .  S
Zr610       O613   2.395       .  S
Zr610       O614   2.430       .  S
O611        H648   0.990       .  S
O612        H643   0.990       .  S
O612        H657   0.990       .  S
O613      Zr1761   2.372   1_554  S
O614        H640   0.966       .  S
O615       Zr625   2.363   1_554  S
O616       Zr625   2.393       .  S
O616      Zr1761   2.390       .  S
O616       H1793   0.966       .  S
C617       C1004   1.499       .  S
C618        C817   1.508       .  S
C619        C804   1.492       .  S
O620        H656   0.990       .  S
O621        C623   1.287       .  A
O622        C623   1.275       .  A
C623        C874   1.479       .  S
O624       Zr625   2.439       .  S
O624        H653   0.990       .  S
Zr625       O628   2.438   1_556  S
Zr625      O1781   2.439       .  S
Zr625       O630   2.407   1_556  S
Zr625      O1758   2.365       .  S
O626        C631   1.283       .  A
O627        H644   0.990       .  S
O627        H659   0.990       .  S
O628        H645   0.990       .  S
O629      Zr1777   2.439       .  S
O629        H649   0.990       .  S
O629        H658   0.990       .  S
O630        C631   1.279       .  A
C631        C827   1.460       .  S
O632        H651   0.990       .  S
O632        H655   0.990       .  S
O633        H647   0.990       .  S
O633        H654   0.990       .  S
O634       C1790   1.276       .  A
O635        C638   1.291   1_455  A
O636        H646   0.990       .  S
O637        H650   0.990       .  S
C638       O1786   1.276       .  A
C638        C927   1.489       .  S
H639       O1756   0.966       .  S
H641       O1768   0.966       .  S
Zr661       O662   2.437       .  S
Zr661       O663   2.424       .  S
Zr661       O664   2.491       .  S
Zr661       O667   2.494       .  S
Zr661       O669   2.401       .  S
Zr661       O670   2.401       .  S
Zr661       O671   2.416       .  S
Zr661       O672   2.411       .  S
O662        H718   0.990       .  S
O662        H726   0.990       .  S
O663        C683   1.285       .  A
O664        C685   1.298       .  A
O665       Zr675   2.397       .  S
O665        C684   1.268       .  A
O666       Zr674   2.412       .  S
O666        C685   1.283       .  A
O667        C684   1.292       .  A
O668       Zr676   2.454       .  S
O668        C683   1.287       .  A
O669       Zr674   2.415       .  S
O669       Zr676   2.379       .  S
O670       Zr675   2.398       .  S
O670       Zr676   2.351       .  S
O670        H705   0.965       .  S
O671       Zr674   2.422       .  S
O671       Zr691   2.364       .  S
O671        H708   0.963       .  S
O672       Zr675   2.404       .  S
O672       Zr691   2.391       .  S
Zr673       O698   2.442       .  S
Zr673       O692   2.436       .  S
Zr673       O700   2.352       .  S
Zr673       O688   2.397       .  S
Zr673       O679   2.400       .  S
Zr673       O680   2.399       .  S
Zr673       O681   2.358       .  S
Zr673       O682   2.366       .  S
Zr674       O693   2.435       .  S
Zr674       O686   2.435       .  S
Zr674       O687   2.498       .  S
Zr674       O680   2.382       .  S
Zr674       O681   2.387       .  S
Zr675       O677   2.437       .  S
Zr675       O699   2.441       .  S
Zr675       O701   2.425       .  S
Zr675       O679   2.386       .  S
Zr675       O682   2.366       .  S
Zr676       O702   2.436       .  S
Zr676       O703   2.436       .  S
Zr676       O678   2.437       .  S
Zr676       O679   2.412       .  S
Zr676       O680   2.393       .  S
O677        H714   0.990       .  S
O678        H709   0.990       .  S
O678        H723   0.990       .  S
O680        H706   0.965       .  S
O681       Zr691   2.389       .  S
O682       Zr691   2.363       .  S
O682        H707   0.966       .  S
C683        C887   1.492       .  S
C684        C814   1.504       .  S
C685        C807   1.491       .  S
O686        H722   0.990       .  S
O687        C689   1.293       .  A
O688        C689   1.274       .  A
C689       C1147   1.502       .  S
O690       Zr691   2.439       .  S
O690        H719   0.990       .  S
Zr691       O694   2.436       .  S
Zr691       O695   2.440       .  S
Zr691       O696   2.404       .  S
O692        C697   1.285       .  A
O693        H710   0.990       .  S
O693        H725   0.990       .  S
O694        H711   0.990       .  S
O695        H715   0.990       .  S
O695        H724   0.990       .  S
O696        C697   1.279       .  A
C697        C794   1.471       .  S
O698        H717   0.989       .  S
O698        H721   0.989       .  S
O699        H713   0.989       .  S
O699        H720   0.988       .  S
O700        C704   1.271       .  A
O701        C704   1.281       .  A
O702        H712   0.990       .  S
O703        H716   0.990       .  S
C704       C1014   1.434       .  S
Zr727       O728   2.434       .  S
Zr727       O729   2.428       .  S
Zr727       O730   2.498       .  S
Zr727       O733   2.505       .  S
Zr727       O735   2.378       .  S
Zr727       O736   2.406       .  S
Zr727       O737   2.423       .  S
Zr727       O738   2.385       .  S
O728        H784   0.990       .  S
O728        H792   0.990       .  S
O729        C749   1.286       .  A
O730        C751   1.292       .  A
O731       Zr741   2.424       .  S
O731        C750   1.285       .  A
O732       Zr740   2.395       .  S
O732        C751   1.266       .  A
O733        C750   1.302       .  A
O734       Zr742   2.471       .  S
O734        C749   1.290       .  A
O735       Zr740   2.395       .  S
O735       Zr742   2.347       .  S
O736       Zr741   2.408       .  S
O736       Zr742   2.381       .  S
O736        H771   0.966       .  S
O737       Zr740   2.415       .  S
O737       Zr757   2.399       .  S
O737        H774   0.966       .  S
O738       Zr741   2.385       .  S
O738       Zr757   2.364       .  S
Zr739       O764   2.444       .  S
Zr739       O758   2.431       .  S
Zr739       O766   2.389       .  S
Zr739       O754   2.389       .  S
Zr739       O745   2.402       .  S
Zr739       O746   2.401       .  S
Zr739       O747   2.365       .  S
Zr739       O748   2.366       .  S
Zr740       O759   2.435       .  S
Zr740       O752   2.434       .  S
Zr740       O753   2.435       .  S
Zr740       O746   2.392       .  S
Zr740       O747   2.365       .  S
Zr741       O743   2.435       .  S
Zr741       O765   2.437       .  S
Zr741       O767   2.484       .  S
Zr741       O745   2.370       .  S
Zr741       O748   2.391       .  S
Zr742       O768   2.435       .  S
Zr742       O769   2.435       .  S
Zr742       O744   2.437       .  S
Zr742       O745   2.401       .  S
Zr742       O746   2.424       .  S
O743        H780   0.990       .  S
O744        H775   0.990       .  S
O744        H789   0.990       .  S
O746        H772   0.966       .  S
O747       Zr757   2.368       .  S
O748       Zr757   2.395       .  S
O748        H773   0.966       .  S
C749        C867   1.507       .  S
C750        C834   1.508       .  S
C751        C844   1.496       .  S
O752        H788   0.990       .  S
O753        C755   1.285       .  A
O754        C755   1.274       .  A
C755        C977   1.453       .  S
O756       Zr757   2.439       .  S
O756        H785   0.990       .  S
Zr757       O760   2.437       .  S
Zr757       O761   2.438       .  S
Zr757       O762   2.405       .  S
O758        C763   1.285       .  A
O759        H776   0.990       .  S
O759        H791   0.990       .  S
O760        H777   0.990       .  S
O761        H781   0.990       .  S
O761        H790   0.990       .  S
O762        C763   1.279       .  A
C763        C797   1.473       .  S
O764        H783   0.990       .  S
O764        H787   0.990       .  S
O765        H779   0.990       .  S
O765        H786   0.990       .  S
O766        C770   1.276       .  A
O767        C770   1.292       .  A
O768        H778   0.990       .  S
O769        H782   0.990       .  S
C770       C1087   1.493       .  S
C793        C794   1.406       .  A
C793        C798   1.394       .  A
C793        F800   1.358       .  S
C794        C795   1.405       .  A
C795        C796   1.397       .  A
C795        F802   1.358       .  S
C796        C797   1.408       .  A
C796        F801   1.358       .  S
C797        C798   1.405       .  A
C798        F799   1.356       .  S
C803        C804   1.406       .  A
C803        C808   1.397       .  A
C803        F810   1.353       .  S
C804        C805   1.412       .  A
C805        C806   1.407       .  A
C805        F812   1.358       .  S
C806        C807   1.409       .  A
C806        F811   1.357       .  S
C807        C808   1.411       .  A
C808        F809   1.359       .  S
C813        C814   1.418       .  A
C813        C818   1.409       .  A
C813        F820   1.356       .  S
C814        C815   1.403       .  A
C815        C816   1.401       .  A
C815        F822   1.354       .  S
C816        C817   1.420       .  A
C816        F821   1.358       .  S
C817        C818   1.408       .  A
C818        F819   1.357       .  S
C823        C828   1.396       .  A
C823       C1976   1.403       .  A
C823        F830   1.357       .  S
C824       C1717   1.459       .  S
C824        C825   1.402       .  A
C824       C1975   1.403   1_554  A
C825        C826   1.398   1_655  A
C825        F832   1.358       .  S
C826        C827   1.404       .  A
C826        F831   1.358       .  S
C827       C1980   1.402   1_454  A
C828       C1979   1.402   1_655  A
C828        F829   1.358       .  S
C833        C834   1.409       .  A
C833        C838   1.410       .  A
C833        F840   1.357       .  S
C834        C835   1.419       .  A
C835        C836   1.402       .  A
C835        F842   1.358       .  S
C836        C837   1.405       .  A
C836        F841   1.354       .  S
C837        C838   1.417       .  A
C838        F839   1.357       .  S
C843        C844   1.415       .  A
C843        C848   1.406       .  A
C843        F850   1.358       .  S
C844        C845   1.406       .  A
C845        C846   1.400       .  A
C845        F852   1.353       .  S
C846        C847   1.413       .  A
C846        F851   1.358       .  S
C847        C848   1.409       .  A
C848        F849   1.357       .  S
C853        C854   1.397   1_655  A
C853        C858   1.376       .  A
C853        F860   1.359   1_655  S
C854        C855   1.399       .  A
C855        C856   1.394   1_455  A
C855        F862   1.357       .  S
C856        C857   1.403       .  A
C856        F861   1.357       .  S
C857        C858   1.398       .  A
C858        F859   1.360       .  S
C863        C864   1.412       .  A
C863        C868   1.416       .  A
C863        F870   1.357       .  S
C864        C865   1.417       .  A
C865        C866   1.397       .  A
C865        F872   1.359       .  S
C866        C867   1.409       .  A
C866        F871   1.358       .  S
C867        C868   1.416       .  A
C868        F869   1.357       .  S
C873        C874   1.402       .  A
C873        C878   1.394       .  A
C873        F880   1.358       .  S
C874        C875   1.414   1_455  A
C875        C876   1.395       .  A
C875        F882   1.359       .  S
C876        C877   1.404       .  A
C876        F881   1.358       .  S
C877        C878   1.416   1_655  A
C878        F879   1.359       .  S
C883        C884   1.411       .  A
C883        C888   1.412       .  A
C883        F890   1.357       .  S
C884        C885   1.411       .  A
C885        C886   1.393       .  A
C885        F892   1.359       .  S
C886        C887   1.407       .  A
C886        F891   1.358       .  S
C887        C888   1.412       .  A
C888        F889   1.357       .  S
C893        C894   1.408       .  A
C893        C898   1.396       .  A
C893        F900   1.358       .  S
C894        C895   1.402   1_655  A
C895        C896   1.398       .  A
C895        F902   1.358       .  S
C896        C897   1.408       .  A
C896        F901   1.358       .  S
C897        C898   1.401   1_455  A
C898        F899   1.358       .  S
C903        C904   1.418       .  A
C903        C908   1.409       .  A
C903        F910   1.356       .  S
C904        C905   1.402       .  A
C905        C906   1.398       .  A
C905        F912   1.353       .  S
C906        C907   1.421       .  A
C906        F911   1.358       .  S
C907        C908   1.408       .  A
C908        F909   1.357       .  S
C913        C914   1.412       .  A
C913        C918   1.397       .  A
C913        F920   1.359       .  S
C914        C915   1.408       .  A
C915        C916   1.406       .  A
C915        F922   1.357       .  S
C916        C917   1.412       .  A
C916        F921   1.358       .  S
C917        C918   1.406       .  A
C918        F919   1.354       .  S
C923        C924   1.408       .  A
C923        C928   1.392       .  A
C923        F930   1.358       .  S
C924       C1505   1.491       .  S
C924       C2077   1.411       .  A
C925        C926   1.412       .  A
C925       C2076   1.411       .  A
C925        F932   1.357       .  S
C926       C2079   1.410       .  A
C926        F931   1.357       .  S
C927        C928   1.408       .  A
C927       C2078   1.410       .  A
C928        F929   1.359       .  S
C933        C934   1.413       .  A
C933       C2090   1.396       .  A
C933        F940   1.358   1_554  S
C934        C935   1.408   1_565  A
C935        C936   1.394       .  A
C935        F942   1.358       .  S
C936        C937   1.414       .  A
C936        F941   1.358       .  S
C937       C1519   1.486       .  S
C937       C2090   1.407   1_545  A
C938       C2085   1.396       .  A
C938       C2089   1.407   1_565  A
C938        F939   1.358       .  S
C943        C944   1.408       .  A
C943        C948   1.407       .  A
C943        F950   1.357       .  S
C944        C945   1.412       .  A
C945        C946   1.398       .  A
C945        F952   1.359       .  S
C946        C947   1.406       .  A
C946        F951   1.353       .  S
C947        C948   1.414       .  A
C948        F949   1.358       .  S
C953        C954   1.421       .  A
C953        C958   1.408       .  A
C953        F960   1.358       .  S
C954        C955   1.406       .  A
C955        C956   1.405       .  A
C955        F962   1.358       .  S
C956        C957   1.417       .  A
C956        F961   1.354       .  S
C957        C958   1.400       .  A
C958        F959   1.353       .  S
C963        C964   1.411       .  A
C963        C968   1.414       .  A
C963        F970   1.357       .  S
C964        C965   1.409       .  A
C965        C966   1.399       .  A
C965        F972   1.358       .  S
C966        C967   1.409       .  A
C966        F971   1.359       .  S
C967        C968   1.411       .  A
C968        F969   1.357       .  S
C973        C974   1.404       .  A
C973        C978   1.383       .  A
C973        F980   1.359       .  S
C974        C975   1.402       .  A
C975        C976   1.402       .  A
C975        F982   1.357       .  S
C976        C977   1.407       .  A
C976        F981   1.356       .  S
C977        C978   1.398       .  A
C978        F979   1.359       .  S
C983        C984   1.411       .  A
C983        C988   1.412       .  A
C983        F990   1.357       .  S
C984       C2137   1.414       .  A
C985        C986   1.393       .  A
C985       C2136   1.414       .  A
C985        F992   1.359       .  S
C986       C2139   1.408       .  A
C986        F991   1.359       .  S
C987       C1703   1.495       .  S
C987        C988   1.412       .  A
C987       C2138   1.408       .  A
C988        F989   1.357       .  S
C993        C994   1.408       .  A
C993        C998   1.400       .  A
C993       F1000   1.358       .  S
C994        C995   1.410       .  A
C995        C996   1.413       .  A
C995       F2154   1.357       .  S
C996        C997   1.411       .  A
C996       F2153   1.357       .  S
C997        C998   1.409       .  A
C998        F999   1.359       .  S
F1001      C2148   1.357       .  S
F1002      C2147   1.357       .  S
C1003      C1004   1.412       .  A
C1003      C1008   1.413       .  A
C1003      F1010   1.357       .  S
C1004      C1005   1.410       .  A
C1005      C1006   1.399       .  A
C1005      F1012   1.358       .  S
C1006      C1007   1.410       .  A
C1006      F1011   1.359       .  S
C1007      C1008   1.410       .  A
C1008      F1009   1.357       .  S
C1013      C1014   1.398       .  A
C1013      C1018   1.374       .  A
C1013      F1020   1.359       .  S
C1014      C1015   1.400       .  A
C1015      C1016   1.396       .  A
C1015      F1022   1.357       .  S
C1016      C1017   1.404       .  A
C1016      F1021   1.357       .  S
C1017      C1018   1.397       .  A
C1018      F1019   1.360       .  S
C1023      C1024   1.407       .  A
C1023      C1028   1.395       .  A
C1023      F2182   1.358       .  S
C1024      C1321   1.483       .  S
C1024      C1025   1.413       .  A
C1025      C1026   1.392       .  A
C1025      F1032   1.358       .  S
C1026      C1027   1.406       .  A
C1026      F1031   1.358       .  S
C1027      C1028   1.412       .  A
C1028      F1029   1.358       .  S
F1030      C2175   1.358       .  S
C1033      C1034   1.417       .  A
C1033      C1038   1.417       .  A
C1033      F1040   1.357       .  S
C1034      C1307   1.506       .  S
C1034      C2187   1.411       .  A
C1035      C1036   1.390       .  A
C1035      C2186   1.411   1_554  A
C1035      F1042   1.359       .  S
C1036      C2189   1.415   1_554  A
C1036      F1041   1.358       .  S
C1037      C1038   1.411       .  A
C1037      C2188   1.415       .  A
C1038      F1039   1.357       .  S
C1043      C1044   1.405       .  A
C1043      C1048   1.396   1_565  A
C1043      F1050   1.358       .  S
C1044      C1045   1.397       .  A
C1045      C1046   1.374       .  A
C1045      F1052   1.360       .  S
C1046      C1047   1.400   1_565  A
C1046      F1051   1.359   1_565  S
C1047      C1048   1.399       .  A
C1048      F1049   1.357       .  S
C1053      C1054   1.410       .  A
C1053      C1058   1.413       .  A
C1053      F1060   1.357       .  S
C1054      C1055   1.410       .  A
C1055      C1056   1.401       .  A
C1055      F1062   1.358       .  S
C1056      C1057   1.407       .  A
C1056      F1061   1.358       .  S
C1057      C1058   1.411       .  A
C1058      F1059   1.358       .  S
C1063      C1064   1.409       .  A
C1063      C1068   1.412       .  A
C1063      F1070   1.357       .  S
C1064      C1065   1.415       .  A
C1065      C1066   1.397       .  A
C1065      F1072   1.359       .  S
C1066      C1067   1.405       .  A
C1066      F1071   1.353       .  S
C1067      C1068   1.416       .  A
C1068      F1069   1.357       .  S
C1073      C1074   1.407       .  A
C1073      C1078   1.397       .  A
C1073      F1080   1.352       .  S
C1074      C1075   1.412       .  A
C1075      C1076   1.404       .  A
C1075      F1082   1.358       .  S
C1076      C1077   1.408       .  A
C1076      F1081   1.357       .  S
C1077      C1078   1.410       .  A
C1078      F1079   1.358       .  S
C1083      C1084   1.408       .  A
C1083      C1088   1.393       .  A
C1083      F1090   1.359       .  S
C1084      C1085   1.411       .  A
C1085      C1086   1.412       .  A
C1085      F1092   1.357       .  S
C1086      C1087   1.411       .  A
C1086      F1091   1.357       .  S
C1087      C1088   1.410       .  A
C1088      F1089   1.359       .  S
C1093      C1094   1.398       .  A
C1093      C1098   1.382   1_565  A
C1093      F1100   1.359       .  S
C1094      C1095   1.406       .  A
C1095      C1096   1.402   1_565  A
C1095      F1102   1.357       .  S
C1096      C1097   1.403       .  A
C1096      F1101   1.357       .  S
C1097      C1098   1.402       .  A
C1098      F1099   1.359       .  S
C1103      C1104   1.401       .  A
C1103      C1108   1.396       .  A
C1103      F1110   1.348       .  S
C1104      C1105   1.406       .  A
C1105      C1106   1.412       .  A
C1105      F1112   1.357       .  S
C1106      C1107   1.411       .  A
C1106      F1111   1.357       .  S
C1107      C1108   1.402       .  A
C1108      F1109   1.359       .  S
C1113      C1114   1.409       .  A
C1113      C1118   1.396       .  A
C1113      F1120   1.358       .  S
C1114      C1115   1.402   1_545  A
C1115      C1116   1.395       .  A
C1115      F1122   1.358       .  S
C1116      C1117   1.410       .  A
C1116      F1121   1.358       .  S
C1117      C1118   1.403   1_565  A
C1118      F1119   1.358       .  S
C1123      C1124   1.416       .  A
C1123      C1128   1.403       .  A
C1123      F1130   1.358       .  S
C1124      C1125   1.404       .  A
C1125      C1126   1.399       .  A
C1125      F1132   1.353       .  S
C1126      C1127   1.417       .  A
C1126      F1131   1.358       .  S
C1127      C1128   1.409       .  A
C1128      F1129   1.357       .  S
C1133      C1134   1.405       .  A
C1133      C1138   1.400       .  A
C1133      F1140   1.357       .  S
C1134      C1135   1.417       .  A
C1135      C1136   1.412       .  A
C1135      F1142   1.357       .  S
C1136      C1137   1.409       .  A
C1136      F1141   1.357       .  S
C1137      C1138   1.420       .  A
C1138      F1139   1.358       .  S
C1143      C1144   1.413       .  A
C1143      C1148   1.414       .  A
C1143      F1150   1.357       .  S
C1144      C1145   1.408       .  A
C1145      C1146   1.398       .  A
C1145      F1152   1.359       .  S
C1146      C1147   1.413       .  A
C1146      F1151   1.359       .  S
C1147      C1148   1.412       .  A
C1148      F1149   1.357       .  S
Zr1153     O1154   2.434       .  S
Zr1153     O1155   2.435       .  S
Zr1153     O1156   2.494       .  S
Zr1153     O1159   2.517       .  S
Zr1153     O1161   2.382       .  S
Zr1153     O1162   2.404       .  S
Zr1153     O1163   2.424       .  S
Zr1153     O1164   2.383       .  S
O1154      H1210   0.990       .  S
O1154      H1218   0.990       .  S
O1155      C1175   1.288       .  A
O1156      C1177   1.292       .  A
O1157     Zr1167   2.406       .  S
O1157      C1176   1.282       .  A
O1158     Zr1166   2.395       .  S
O1158      C1177   1.267       .  A
O1159      C1176   1.304       .  A
O1160     Zr1168   2.466       .  S
O1160      C1175   1.289       .  A
O1161     Zr1166   2.396       .  S
O1161     Zr1168   2.349       .  S
O1162     Zr1167   2.408       .  S
O1162     Zr1168   2.380       .  S
O1162      H1197   0.966       .  S
O1163     Zr1166   2.416       .  S
O1163     Zr1183   2.396       .  S
O1163      H1200   0.966       .  S
O1164     Zr1167   2.386       .  S
O1164     Zr1183   2.366       .  S
Zr1165     O1190   2.444   1_545  S
Zr1165     O1184   2.439       .  S
Zr1165     O1192   2.401       .  S
Zr1165     O1180   2.379       .  S
Zr1165     O1171   2.398       .  S
Zr1165     O1172   2.411       .  S
Zr1165     O1173   2.366       .  S
Zr1165     O1174   2.364       .  S
Zr1166     O1185   2.436       .  S
Zr1166     O1178   2.433       .  S
Zr1166     O1179   2.437       .  S
Zr1166     O1172   2.397       .  S
Zr1166     O1173   2.370       .  S
Zr1167     O1169   2.437       .  S
Zr1167     O1191   2.437       .  S
Zr1167     O1193   2.474       .  S
Zr1167     O1171   2.362       .  S
Zr1167     O1174   2.395       .  S
Zr1168     O1194   2.435       .  S
Zr1168     O1195   2.435       .  S
Zr1168     O1170   2.437       .  S
Zr1168     O1171   2.393       .  S
Zr1168     O1172   2.423       .  S
O1169      H1206   0.990       .  S
O1170      H1201   0.990       .  S
O1170      H1215   0.990       .  S
O1172      H1198   0.966       .  S
O1173     Zr1183   2.369       .  S
O1174     Zr1183   2.401       .  S
O1174      H1199   0.966       .  S
C1175      C2296   1.501       .  S
C1176      C2289   1.506       .  S
C1177      C2276   1.498       .  S
O1178      H1214   0.989       .  S
O1179      C1181   1.283       .  A
O1180      C1181   1.273       .  A
C1181      C2249   1.451       .  S
O1182     Zr1183   2.440       .  S
O1182      H1211   0.990       .  S
Zr1183     O1186   2.438       .  S
Zr1183     O1187   2.439       .  S
Zr1183     O1188   2.400       .  S
O1184      C1189   1.285       .  A
O1185      H1202   0.990       .  S
O1185      H1217   0.990       .  S
O1186      H1203   0.990       .  S
O1187      H1207   0.990       .  S
O1187      H1216   0.990       .  S
O1188      C1189   1.278       .  A
C1189      C2266   1.471       .  S
O1190      H1209   0.990       .  S
O1190      H1213   0.990       .  S
O1191      H1205   0.990       .  S
O1191      H1212   0.990       .  S
O1192      C1196   1.276       .  A
O1193      C1196   1.289       .  A
O1194      H1204   0.990       .  S
O1195      H1208   0.990       .  S
C1196      C2259   1.480   1_545  S
Zr1219     O1220   2.436       .  S
Zr1219     O1221   2.421       .  S
Zr1219     O1222   2.483       .  S
Zr1219     O1225   2.490       .  S
Zr1219     O1227   2.401       .  S
Zr1219     O1228   2.400       .  S
Zr1219     O1229   2.415       .  S
Zr1219     O1230   2.413       .  S
O1220      H1276   0.990       .  S
O1220      H1284   0.990       .  S
O1221      C1241   1.284       .  A
O1222      C1243   1.297       .  A
O1223     Zr1233   2.401       .  S
O1223      C1242   1.268       .  A
O1224     Zr1232   2.416       .  S
O1224      C1243   1.284       .  A
O1225      C1242   1.290       .  A
O1226     Zr1234   2.462       .  S
O1226      C1241   1.288       .  A
O1227     Zr1232   2.414       .  S
O1227     Zr1234   2.380       .  S
O1228     Zr1233   2.392       .  S
O1228     Zr1234   2.342       .  S
O1228      H1263   0.962       .  S
O1229     Zr1232   2.418       .  S
O1229     Zr1249   2.362       .  S
O1229      H1266   0.963       .  S
O1230     Zr1233   2.401       .  S
O1230     Zr1249   2.393       .  S
Zr1231     O1256   2.441   1_565  S
Zr1231     O1250   2.435       .  S
Zr1231     O1258   2.377       .  S
Zr1231     O1246   2.407       .  S
Zr1231     O1237   2.407       .  S
Zr1231     O1238   2.400       .  S
Zr1231     O1239   2.361       .  S
Zr1231     O1240   2.372       .  S
Zr1232     O1251   2.435       .  S
Zr1232     O1244   2.435       .  S
Zr1232     O1245   2.496       .  S
Zr1232     O1238   2.376       .  S
Zr1232     O1239   2.390       .  S
Zr1233     O1235   2.436       .  S
Zr1233     O1257   2.440       .  S
Zr1233     O1259   2.406       .  S
Zr1233     O1237   2.390       .  S
Zr1233     O1240   2.369       .  S
Zr1234     O1260   2.436       .  S
Zr1234     O1261   2.439       .  S
Zr1234     O1236   2.438       .  S
Zr1234     O1237   2.421       .  S
Zr1234     O1238   2.387       .  S
O1235      H1272   0.990       .  S
O1236      H1267   0.990       .  S
O1236      H1281   0.990       .  S
O1238      H1264   0.964       .  S
O1239     Zr1249   2.397       .  S
O1240     Zr1249   2.360       .  S
O1240      H1265   0.966       .  S
C1241      C2236   1.493       .  S
C1242      C2219   1.499       .  S
C1243      C2229   1.487       .  S
O1244      H1280   0.990       .  S
O1245      C1247   1.296       .  A
O1246      C1247   1.280       .  A
C1247      C2209   1.492   1_565  S
O1248     Zr1249   2.440       .  S
O1248      H1277   0.990       .  S
Zr1249     O1252   2.436       .  S
Zr1249     O1253   2.439       .  S
Zr1249     O1254   2.403       .  S
O1250      C1255   1.285       .  A
O1251      H1268   0.990       .  S
O1251      H1283   0.990       .  S
O1252      H1269   0.990       .  S
O1253      H1273   0.990       .  S
O1253      H1282   0.990       .  S
O1254      C1255   1.278       .  A
C1255      C2269   1.473       .  S
O1256      H1275   0.990       .  S
O1256      H1279   0.990   1_545  S
O1257      H1271   0.989       .  S
O1257      H1278   0.987       .  S
O1258      C1262   1.272       .  A
O1259      C1262   1.279       .  A
O1260      H1270   0.990       .  S
O1261      H1274   0.990       .  S
C1262      C2196   1.432       .  S
Zr1285     O1286   2.436       .  S
Zr1285     O1287   2.415       .  S
Zr1285     O1288   2.486       .  S
Zr1285     O1293   2.399       .  S
Zr1285     O1295   2.413       .  S
O1286      H1342   0.990       .  S
O1286      H1350   0.990       .  S
O1287      C1307   1.283       .  A
O1288      C1309   1.298       .  A
O1289     Zr1299   2.398       .  S
O1289      C1308   1.267       .  A
O1290     Zr1298   2.423       .  S
O1290      C1309   1.285       .  A
O1291      C1308   1.290       .  A
O1292     Zr1300   2.468       .  S
O1293     Zr1298   2.414       .  S
O1294     Zr1299   2.397       .  S
O1294     Zr1300   2.343       .  S
O1294      H1329   0.963       .  S
O1295     Zr1298   2.419       .  S
O1295     Zr1315   2.356       .  S
O1295      H1332   0.962       .  S
O1296     Zr1299   2.403       .  S
Zr1297     O1322   2.442       .  S
Zr1297     O1316   2.429   1_556  S
Zr1297     O1324   2.375       .  S
Zr1297     O1303   2.402       .  S
Zr1297     O1306   2.372       .  S
Zr1298     O1317   2.435       .  S
Zr1298     O1310   2.435       .  S
Zr1298     O1311   2.500       .  S
Zr1298     O1304   2.379       .  S
Zr1298     O1305   2.387       .  S
Zr1299     O1301   2.436       .  S
Zr1299     O1323   2.441       .  S
Zr1299     O1325   2.411       .  S
Zr1299     O1303   2.386       .  S
Zr1299     O1306   2.370       .  S
Zr1300     O1326   2.436       .  S
Zr1300     O1327   2.438       .  S
Zr1300     O1303   2.420       .  S
O1301      H1338   0.990       .  S
O1302      H1333   0.990       .  S
O1302      H1347   0.990       .  S
O1304      H1330   0.964       .  S
O1305     Zr1315   2.394       .  S
O1306      H1331   0.966       .  S
C1308      C2286   1.500       .  S
C1309      C2279   1.500       .  S
O1310      H1346   0.990       .  S
O1311      C1313   1.296       .  A
O1312      C1313   1.279       .  A
C1313      C2159   1.494       .  S
O1314     Zr1315   2.439       .  S
O1314      H1343   0.990       .  S
Zr1315     O1318   2.437       .  S
Zr1315     O1320   2.398       .  S
O1316      C1321   1.284       .  A
O1317      H1334   0.990       .  S
O1317      H1349   0.990       .  S
O1318      H1335   0.990       .  S
O1319      H1339   0.990       .  S
O1319      H1348   0.990       .  S
O1322      H1341   0.990       .  S
O1322      H1345   0.990       .  S
O1323      H1337   0.988       .  S
O1323      H1344   0.987       .  S
O1324      C1328   1.272       .  A
O1325      C1328   1.280       .  A
O1326      H1336   0.990       .  S
O1327      H1340   0.990       .  S
C1328      C2169   1.432       .  S
Zr1351     O1352   2.434       .  S
Zr1351     O1353   2.432       .  S
Zr1351     O1354   2.489       .  S
Zr1351     O1359   2.382       .  S
Zr1351     O1360   2.406       .  S
Zr1351     O1361   2.424       .  S
O1352      H1408   0.990       .  S
O1352      H1416   0.990       .  S
O1353      C1373   1.287       .  A
O1354      C1375   1.290       .  A
O1355     Zr1365   2.408       .  S
O1355      C1374   1.283       .  A
O1356     Zr1364   2.395       .  S
O1356      C1375   1.266       .  A
O1357      C1374   1.302       .  A
O1358     Zr1366   2.463       .  S
O1358      C1373   1.289       .  A
O1359     Zr1364   2.400       .  S
O1359     Zr1366   2.351       .  S
O1360     Zr1366   2.379       .  S
O1361     Zr1364   2.422       .  S
O1361     Zr1381   2.393       .  S
O1361      H1398   0.966       .  S
O1362     Zr1365   2.390       .  S
Zr1363     O1388   2.440       .  S
Zr1363     O1382   2.427       .  S
Zr1363     O1390   2.391       .  S
Zr1363     O1378   2.363       .  S
Zr1363     O1369   2.399       .  S
Zr1363     O1370   2.400       .  S
Zr1363     O1371   2.364       .  S
Zr1363     O1372   2.363       .  S
Zr1364     O1383   2.435       .  S
Zr1364     O1376   2.435       .  S
Zr1364     O1377   2.454       .  S
Zr1364     O1370   2.392       .  S
Zr1364     O1371   2.367       .  S
Zr1365     O1367   2.435       .  S
Zr1365     O1389   2.437       .  S
Zr1365     O1391   2.485       .  S
Zr1366     O1392   2.435       .  S
Zr1366     O1393   2.435       .  S
Zr1366     O1368   2.437       .  S
Zr1366     O1369   2.400       .  S
Zr1366     O1370   2.418       .  S
O1367      H1404   0.990       .  S
O1368      H1399   0.990       .  S
O1368      H1413   0.990       .  S
O1370      H1396   0.966       .  S
O1371     Zr1381   2.371       .  S
O1372     Zr1381   2.394       .  S
C1373      C2146   1.495       .  S
C1374      C2216   1.501       .  S
C1375      C2226   1.489       .  S
O1376      H1412   0.990       .  S
O1377      C1379   1.287       .  A
O1378      C1379   1.272       .  A
C1379      C2126   1.456       .  S
O1380     Zr1381   2.439       .  S
O1380      H1409   0.990       .  S
Zr1381     O1384   2.438       .  S
Zr1381     O1386   2.403       .  S
O1382      C1387   1.283       .  A
O1383      H1400   0.990       .  S
O1383      H1415   0.990       .  S
O1384      H1401   0.990       .  S
O1385      H1405   0.990       .  S
O1385      H1414   0.990       .  S
O1386      C1387   1.278       .  A
C1387      C2179   1.482       .  S
O1388      H1407   0.990       .  S
O1388      H1411   0.990       .  S
O1389      H1403   0.990       .  S
O1389      H1410   0.990       .  S
O1391      C1394   1.290       .  A
O1392      H1402   0.990       .  S
O1393      H1406   0.990       .  S
C1394      C2136   1.498       .  S
Zr1417     O1418   2.434       .  S
Zr1417     O1419   2.425       .  S
Zr1417     O1420   2.498       .  S
Zr1417     O1425   2.377       .  S
Zr1417     O1426   2.407       .  S
Zr1417     O1427   2.422       .  S
O1418      H1474   0.990       .  S
O1418      H1482   0.990       .  S
O1419      C1439   1.286       .  A
O1420      C1441   1.291       .  A
O1421     Zr1431   2.436       .  S
O1421      C1440   1.288       .  A
O1422     Zr1430   2.392       .  S
O1422      C1441   1.265       .  A
O1423      C1440   1.301       .  A
O1424     Zr1432   2.470       .  S
O1424      C1439   1.290       .  A
O1425     Zr1430   2.397       .  S
O1425     Zr1432   2.350       .  S
O1426     Zr1432   2.381       .  S
O1427     Zr1430   2.415       .  S
O1427     Zr1447   2.397       .  S
O1427      H1464   0.966       .  S
O1428     Zr1431   2.386       .  S
Zr1429     O1454   2.440       .  S
Zr1429     O1448   2.426       .  S
Zr1429     O1456   2.394       .  S
Zr1429     O1444   2.385       .  S
Zr1429     O1435   2.402       .  S
Zr1429     O1436   2.400       .  S
Zr1429     O1437   2.364       .  S
Zr1429     O1438   2.368       .  S
Zr1430     O1449   2.434       .  S
Zr1430     O1442   2.434       .  S
Zr1430     O1443   2.434       .  S
Zr1430     O1436   2.390       .  S
Zr1430     O1437   2.362       .  S
Zr1431     O1433   2.435       .  S
Zr1431     O1455   2.436       .  S
Zr1431     O1457   2.500       .  S
Zr1432     O1458   2.435       .  S
Zr1432     O1459   2.435       .  S
Zr1432     O1434   2.436       .  S
Zr1432     O1435   2.399       .  S
Zr1432     O1436   2.424       .  S
O1433      H1470   0.990       .  S
O1434      H1465   0.990       .  S
O1434      H1479   0.990       .  S
O1436      H1462   0.966       .  S
O1437     Zr1447   2.365       .  S
O1438     Zr1447   2.393       .  S
C1439      C2116   1.498       .  S
C1440      C2106   1.506       .  S
C1441      C2099   1.493       .  S
O1442      H1478   0.990       .  S
O1443      C1445   1.284       .  A
O1444      C1445   1.274       .  A
C1445      C2246   1.448       .  S
O1446     Zr1447   2.439       .  S
O1446      H1475   0.990       .  S
Zr1447     O1450   2.437       .  S
Zr1447     O1452   2.409       .  S
O1448      C1453   1.284       .  A
O1449      H1466   0.990       .  S
O1449      H1481   0.990       .  S
O1450      H1467   0.990       .  S
O1451      H1471   0.990       .  S
O1451      H1480   0.990       .  S
O1452      C1453   1.280       .  A
C1453      C2086   1.487       .  S
O1454      H1473   0.990   1_565  S
O1454      H1477   0.990       .  S
O1455      H1469   0.990       .  S
O1455      H1476   0.990       .  S
O1457      C1460   1.293       .  A
O1458      H1468   0.990       .  S
O1459      H1472   0.990       .  S
C1460      C2189   1.506   1_565  S
Zr1483     O1484   2.437       .  S
Zr1483     O1485   2.421       .  S
Zr1483     O1486   2.489       .  S
Zr1483     O1491   2.400       .  S
Zr1483     O1493   2.413       .  S
O1484      H1540   0.990       .  S
O1484      H1548   0.990       .  S
O1485      C1505   1.284       .  A
O1486      C1507   1.298       .  A
O1487     Zr1497   2.397       .  S
O1487      C1506   1.268       .  A
O1488     Zr1496   2.408       .  S
O1488      C1507   1.283       .  A
O1489      C1506   1.291       .  A
O1490     Zr1498   2.456       .  S
O1491     Zr1496   2.415       .  S
O1492     Zr1497   2.400       .  S
O1492     Zr1498   2.350       .  S
O1492      H1527   0.965       .  S
O1493     Zr1496   2.421       .  S
O1493     Zr1513   2.364       .  S
O1493      H1530   0.963       .  S
O1494     Zr1497   2.405       .  S
Zr1495     O1520   2.442   1_545  S
Zr1495     O1514   2.439   1_556  S
Zr1495     O1522   2.353       .  S
Zr1495     O1501   2.405       .  S
Zr1495     O1504   2.365       .  S
Zr1496     O1515   2.434       .  S
Zr1496     O1508   2.434       .  S
Zr1496     O1509   2.498       .  S
Zr1496     O1502   2.376       .  S
Zr1496     O1503   2.386       .  S
Zr1497     O1499   2.437       .  S
Zr1497     O1521   2.442       .  S
Zr1497     O1523   2.420       .  S
Zr1497     O1501   2.389       .  S
Zr1497     O1504   2.375       .  S
Zr1498     O1524   2.436       .  S
Zr1498     O1525   2.435       .  S
Zr1498     O1501   2.416       .  S
O1499      H1536   0.990       .  S
O1500      H1531   0.990       .  S
O1500      H1545   0.990       .  S
O1502      H1528   0.965       .  S
O1503     Zr1513   2.395       .  S
O1504      H1529   0.966       .  S
C1506      C2056   1.502       .  S
C1507      C2066   1.490       .  S
O1508      H1544   0.990       .  S
O1509      C1511   1.295   1_545  A
O1510      C1511   1.276   1_545  A
C1511      C2149   1.492       .  S
O1512     Zr1513   2.440       .  S
O1512      H1541   0.990       .  S
Zr1513     O1516   2.436       .  S
Zr1513     O1518   2.397       .  S
O1514      C1519   1.285       .  A
O1515      H1532   0.990       .  S
O1515      H1547   0.990       .  S
O1516      H1533   0.990       .  S
O1517      H1537   0.990       .  S
O1517      H1546   0.990   1_554  S
O1520      H1539   0.990       .  S
O1520      H1543   0.989       .  S
O1521      H1535   0.989       .  S
O1521      H1542   0.988       .  S
O1522      C1526   1.269       .  A
O1523      C1526   1.279       .  A
O1524      H1534   0.990       .  S
O1525      H1538   0.990       .  S
C1526      C2199   1.435       .  S
Zr1549     O1550   2.434       .  S
Zr1549     O1551   2.427       .  S
Zr1549     O1552   2.485       .  S
Zr1549     O1555   2.504       .  S
Zr1549     O1557   2.382       .  S
Zr1549     O1558   2.407       .  S
Zr1549     O1559   2.426       .  S
Zr1549     O1560   2.383       .  S
O1550      H1606   0.990       .  S
O1550      H1614   0.990       .  S
O1551      C1571   1.286       .  A
O1552      C1573   1.289       .  A
O1553     Zr1563   2.415       .  S
O1553      C1572   1.283       .  A
O1554     Zr1562   2.398       .  S
O1554      C1573   1.266       .  A
O1555      C1572   1.301       .  A
O1556     Zr1564   2.475       .  S
O1556      C1571   1.292       .  A
O1557     Zr1562   2.396       .  S
O1557     Zr1564   2.348       .  S
O1558     Zr1563   2.408       .  S
O1558     Zr1564   2.381       .  S
O1558      H1593   0.966       .  S
O1559     Zr1562   2.421       .  S
O1559     Zr1579   2.394       .  S
O1559      H1596   0.966       .  S
O1560     Zr1563   2.386       .  S
O1560     Zr1579   2.362       .  S
Zr1561     O1586   2.443       .  S
Zr1561     O1580   2.440       .  S
Zr1561     O1588   2.387       .  S
Zr1561     O1576   2.376       .  S
Zr1561     O1567   2.400       .  S
Zr1561     O1568   2.405       .  S
Zr1561     O1569   2.364       .  S
Zr1561     O1570   2.366       .  S
Zr1562     O1581   2.437       .  S
Zr1562     O1574   2.436       .  S
Zr1562     O1575   2.451       .  S
Zr1562     O1568   2.393       .  S
Zr1562     O1569   2.364       .  S
Zr1563     O1565   2.435       .  S
Zr1563     O1587   2.437       .  S
Zr1563     O1589   2.483       .  S
Zr1563     O1567   2.369       .  S
Zr1563     O1570   2.391       .  S
Zr1564     O1590   2.435       .  S
Zr1564     O1591   2.434       .  S
Zr1564     O1566   2.436       .  S
Zr1564     O1567   2.399       .  S
Zr1564     O1568   2.432       .  S
O1565      H1602   0.990       .  S
O1566      H1597   0.990       .  S
O1566      H1611   0.990       .  S
O1568      H1594   0.966       .  S
O1569     Zr1579   2.363       .  S
O1570     Zr1579   2.396       .  S
O1570      H1595   0.966       .  S
C1571      C2206   1.497       .  S
C1572      C2059   1.506       .  S
C1573      C2069   1.490       .  S
O1574      H1610   0.990       .  S
O1575      C1577   1.288       .  A
O1576      C1577   1.274       .  A
C1577      C2029   1.482       .  S
O1578     Zr1579   2.439       .  S
O1578      H1607   0.990       .  S
Zr1579     O1582   2.438       .  S
Zr1579     O1583   2.439       .  S
Zr1579     O1584   2.402       .  S
O1580      C1585   1.285       .  A
O1581      H1598   0.990       .  S
O1581      H1613   0.990       .  S
O1582      H1599   0.990       .  S
O1583      H1603   0.990       .  S
O1583      H1612   0.990       .  S
O1584      C1585   1.278       .  A
C1585      C2046   1.468       .  S
O1586      H1605   0.990   1_655  S
O1586      H1609   0.990       .  S
O1587      H1601   0.990       .  S
O1587      H1608   0.990       .  S
O1588      C1592   1.274       .  A
O1589      C1592   1.291       .  A
O1590      H1600   0.990       .  S
O1591      H1604   0.990       .  S
C1592      C2036   1.492   1_655  S
Zr1615     O1616   2.437       .  S
Zr1615     O1617   2.439       .  S
Zr1615     O1618   2.504       .  S
Zr1615     O1621   2.515       .  S
Zr1615     O1623   2.406       .  S
Zr1615     O1624   2.399       .  S
Zr1615     O1625   2.422       .  S
Zr1615     O1626   2.413       .  S
O1616      H1672   0.990       .  S
O1616      H1680   0.990       .  S
O1617      C1637   1.287       .  A
O1618      C1639   1.301       .  A
O1619     Zr1629   2.395       .  S
O1619      C1638   1.267       .  A
O1620     Zr1628   2.401       .  S
O1620      C1639   1.281       .  A
O1621      C1638   1.295       .  A
O1622     Zr1630   2.447       .  S
O1622      C1637   1.285       .  A
O1623     Zr1628   2.418       .  S
O1623     Zr1630   2.377       .  S
O1624     Zr1629   2.400       .  S
O1624     Zr1630   2.357       .  S
O1624      H1659   0.965       .  S
O1625     Zr1628   2.426       .  S
O1625     Zr1645   2.367       .  S
O1625      H1662   0.963       .  S
O1626     Zr1629   2.402       .  S
O1626     Zr1645   2.391       .  S
Zr1627     O1652   2.441   1_455  S
Zr1627     O1646   2.438       .  S
Zr1627     O1654   2.361       .  S
Zr1627     O1642   2.400   1_455  S
Zr1627     O1633   2.401       .  S
Zr1627     O1634   2.402       .  S
Zr1627     O1635   2.357       .  S
Zr1627     O1636   2.364       .  S
Zr1628     O1647   2.435       .  S
Zr1628     O1640   2.435       .  S
Zr1628     O1641   2.499       .  S
Zr1628     O1634   2.380       .  S
Zr1628     O1635   2.387       .  S
Zr1629     O1631   2.438       .  S
Zr1629     O1653   2.441       .  S
Zr1629     O1655   2.417       .  S
Zr1629     O1633   2.381       .  S
Zr1629     O1636   2.364       .  S
Zr1630     O1656   2.436       .  S
Zr1630     O1657   2.435       .  S
Zr1630     O1632   2.437       .  S
Zr1630     O1633   2.411       .  S
Zr1630     O1634   2.388       .  S
O1631      H1668   0.990       .  S
O1632      H1663   0.990       .  S
O1632      H1677   0.990       .  S
O1634      H1660   0.965       .  S
O1635     Zr1645   2.390       .  S
O1636     Zr1645   2.363       .  S
O1636      H1661   0.966       .  S
C1637      C2256   1.485       .  S
C1638      C2109   1.508       .  S
C1639      C2096   1.491       .  S
O1640      H1676   0.990       .  S
O1641      C1643   1.292   1_455  A
O1642      C1643   1.272       .  A
C1643      C2016   1.510       .  S
O1644     Zr1645   2.440       .  S
O1644      H1673   0.990       .  S
Zr1645     O1648   2.437       .  S
Zr1645     O1649   2.439       .  S
Zr1645     O1650   2.410       .  S
O1646      C1651   1.286       .  A
O1647      H1664   0.990       .  S
O1647      H1679   0.990       .  S
O1648      H1665   0.990       .  S
O1649      H1669   0.990       .  S
O1649      H1678   0.990       .  S
O1650      C1651   1.279       .  A
C1651      C2049   1.468       .  S
O1652      H1671   0.988       .  S
O1652      H1675   0.989       .  S
O1653      H1667   0.989       .  S
O1653      H1674   0.988       .  S
O1654      C1658   1.272       .  A
O1655      C1658   1.279       .  A
O1656      H1666   0.990       .  S
O1657      H1670   0.990       .  S
C1658      C2006   1.429       .  S
Zr1681     O1682   2.436       .  S
Zr1681     O1683   2.427       .  S
Zr1681     O1684   2.494       .  S
Zr1681     O1689   2.401       .  S
Zr1681     O1691   2.417       .  S
O1682      H1738   0.990       .  S
O1682      H1746   0.990       .  S
O1683      C1703   1.286       .  A
O1684      C1705   1.299       .  A
O1685     Zr1695   2.398       .  S
O1685      C1704   1.268       .  A
O1686     Zr1694   2.418       .  S
O1686      C1705   1.284       .  A
O1687      C1704   1.292       .  A
O1688     Zr1696   2.456       .  S
O1689     Zr1694   2.414       .  S
O1690     Zr1695   2.394       .  S
O1690     Zr1696   2.345       .  S
O1690      H1725   0.964       .  S
O1691     Zr1694   2.418       .  S
O1691     Zr1711   2.360       .  S
O1691      H1728   0.962       .  S
O1692     Zr1695   2.402       .  S
Zr1693     O1718   2.443       .  S
Zr1693     O1712   2.430   1_556  S
Zr1693     O1720   2.376       .  S
Zr1693     O1699   2.400       .  S
Zr1693     O1702   2.371       .  S
Zr1694     O1713   2.435       .  S
Zr1694     O1706   2.435       .  S
Zr1694     O1707   2.496       .  S
Zr1694     O1700   2.378       .  S
Zr1694     O1701   2.389       .  S
Zr1695     O1697   2.436       .  S
Zr1695     O1719   2.441       .  S
Zr1695     O1721   2.409       .  S
Zr1695     O1699   2.386       .  S
Zr1695     O1702   2.370       .  S
Zr1696     O1722   2.436       .  S
Zr1696     O1723   2.438       .  S
Zr1696     O1699   2.416       .  S
O1697      H1734   0.990       .  S
O1698      H1729   0.990       .  S
O1698      H1743   0.990       .  S
O1700      H1726   0.964       .  S
O1701     Zr1711   2.394       .  S
O1702      H1727   0.966       .  S
C1704      C1989   1.504       .  S
C1705      C1999   1.495       .  S
O1706      H1742   0.990       .  S
O1707      C1709   1.296       .  A
O1708      C1709   1.280       .  A
C1709      C2119   1.495   1_655  S
O1710     Zr1711   2.439       .  S
O1710      H1739   0.990       .  S
Zr1711     O1714   2.437       .  S
Zr1711     O1716   2.409       .  S
O1712      C1717   1.283       .  A
O1713      H1730   0.990       .  S
O1713      H1745   0.990       .  S
O1714      H1731   0.990       .  S
O1715      H1735   0.990       .  S
O1715      H1744   0.990   1_554  S
O1718      H1737   0.990       .  S
O1718      H1741   0.990       .  S
O1719      H1733   0.989       .  S
O1719      H1740   0.988       .  S
O1720      C1724   1.272       .  A
O1721      C1724   1.279       .  A
O1722      H1732   0.990       .  S
O1723      H1736   0.990       .  S
C1724      C2009   1.431       .  S
Zr1747     O1748   2.434       .  S
Zr1747     O1749   2.429       .  S
Zr1747     O1750   2.489       .  S
Zr1747     O1755   2.380       .  S
Zr1747     O1756   2.405       .  S
Zr1747     O1757   2.426       .  S
O1748      H1804   0.990       .  S
O1748      H1812   0.990       .  S
O1749      C1769   1.287       .  A
O1750      C1771   1.289       .  A
O1751     Zr1761   2.421       .  S
O1751      C1770   1.285       .  A
O1752     Zr1760   2.398       .  S
O1752      C1771   1.266       .  A
O1753      C1770   1.301       .  A
O1754     Zr1762   2.467       .  S
O1754      C1769   1.290       .  A
O1755     Zr1760   2.395       .  S
O1755     Zr1762   2.349       .  S
O1756     Zr1762   2.383       .  S
O1757     Zr1760   2.420       .  S
O1757     Zr1777   2.397       .  S
O1757      H1794   0.966       .  S
O1758     Zr1761   2.387       .  S
Zr1759     O1784   2.442   1_455  S
Zr1759     O1778   2.432       .  S
Zr1759     O1786   2.389   1_455  S
Zr1759     O1774   2.380       .  S
Zr1759     O1765   2.397       .  S
Zr1759     O1766   2.400       .  S
Zr1759     O1767   2.364       .  S
Zr1759     O1768   2.369       .  S
Zr1760     O1779   2.438       .  S
Zr1760     O1772   2.435       .  S
Zr1760     O1773   2.446       .  S
Zr1760     O1766   2.394       .  S
Zr1760     O1767   2.364       .  S
Zr1761     O1763   2.435       .  S
Zr1761     O1785   2.437       .  S
Zr1761     O1787   2.481       .  S
Zr1762     O1788   2.435       .  S
Zr1762     O1789   2.434       .  S
Zr1762     O1764   2.436       .  S
Zr1762     O1765   2.395       .  S
Zr1762     O1766   2.430       .  S
O1763      H1800   0.990       .  S
O1764      H1795   0.990       .  S
O1764      H1809   0.990       .  S
O1766      H1792   0.966       .  S
O1767     Zr1777   2.363       .  S
O1768     Zr1777   2.393       .  S
C1769      C2156   1.499       .  S
C1770      C1969   1.508       .  S
C1771      C1956   1.492       .  S
O1772      H1808   0.990       .  S
O1773      C1775   1.287       .  A
O1774      C1775   1.275       .  A
C1775      C2026   1.479       .  S
O1776     Zr1777   2.439       .  S
O1776      H1805   0.990       .  S
Zr1777     O1780   2.438       .  S
Zr1777     O1782   2.407       .  S
O1778      C1783   1.283       .  A
O1779      H1796   0.990       .  S
O1779      H1811   0.990       .  S
O1780      H1797   0.990       .  S
O1781      H1801   0.990       .  S
O1781      H1810   0.990       .  S
O1782      C1783   1.279       .  A
C1783      C1979   1.460       .  S
O1784      H1803   0.990       .  S
O1784      H1807   0.990       .  S
O1785      H1799   0.990       .  S
O1785      H1806   0.990       .  S
O1787      C1790   1.291   1_455  A
O1788      H1798   0.990       .  S
O1789      H1802   0.990       .  S
C1790      C2079   1.489       .  S
Zr1813     O1814   2.437       .  S
Zr1813     O1815   2.424       .  S
Zr1813     O1816   2.491       .  S
Zr1813     O1819   2.494       .  S
Zr1813     O1821   2.401       .  S
Zr1813     O1822   2.401       .  S
Zr1813     O1823   2.415       .  S
Zr1813     O1824   2.411       .  S
O1814      H1870   0.990       .  S
O1814      H1878   0.990       .  S
O1815      C1835   1.285       .  A
O1816      C1837   1.298       .  A
O1817     Zr1827   2.397       .  S
O1817      C1836   1.268       .  A
O1818     Zr1826   2.412       .  S
O1818      C1837   1.283       .  A
O1819      C1836   1.292       .  A
O1820     Zr1828   2.454       .  S
O1820      C1835   1.287       .  A
O1821     Zr1826   2.415       .  S
O1821     Zr1828   2.379       .  S
O1822     Zr1827   2.398       .  S
O1822     Zr1828   2.351       .  S
O1822      H1857   0.965       .  S
O1823     Zr1826   2.422       .  S
O1823     Zr1843   2.364       .  S
O1823      H1860   0.963       .  S
O1824     Zr1827   2.404       .  S
O1824     Zr1843   2.391       .  S
Zr1825     O1850   2.442       .  S
Zr1825     O1844   2.436       .  S
Zr1825     O1852   2.352       .  S
Zr1825     O1840   2.397       .  S
Zr1825     O1831   2.400       .  S
Zr1825     O1832   2.399       .  S
Zr1825     O1833   2.358       .  S
Zr1825     O1834   2.366       .  S
Zr1826     O1845   2.435       .  S
Zr1826     O1838   2.435       .  S
Zr1826     O1839   2.498       .  S
Zr1826     O1832   2.382       .  S
Zr1826     O1833   2.387       .  S
Zr1827     O1829   2.437       .  S
Zr1827     O1851   2.441       .  S
Zr1827     O1853   2.425       .  S
Zr1827     O1831   2.386       .  S
Zr1827     O1834   2.366       .  S
Zr1828     O1854   2.436       .  S
Zr1828     O1855   2.436       .  S
Zr1828     O1830   2.437       .  S
Zr1828     O1831   2.412       .  S
Zr1828     O1832   2.393       .  S
O1829      H1866   0.990       .  S
O1830      H1861   0.990       .  S
O1830      H1875   0.990       .  S
O1832      H1858   0.965       .  S
O1833     Zr1843   2.389       .  S
O1834     Zr1843   2.363       .  S
O1834      H1859   0.966       .  S
C1835      C2039   1.492       .  S
C1836      C1966   1.504       .  S
C1837      C1959   1.491       .  S
O1838      H1874   0.990       .  S
O1839      C1841   1.293       .  A
O1840      C1841   1.274       .  A
C1841      C2299   1.502       .  S
O1842     Zr1843   2.439       .  S
O1842      H1871   0.990       .  S
Zr1843     O1846   2.436       .  S
Zr1843     O1847   2.440       .  S
Zr1843     O1848   2.404       .  S
O1844      C1849   1.285       .  A
O1845      H1862   0.990       .  S
O1845      H1877   0.990       .  S
O1846      H1863   0.990       .  S
O1847      H1867   0.990       .  S
O1847      H1876   0.990       .  S
O1848      C1849   1.279       .  A
C1849      C1946   1.471       .  S
O1850      H1869   0.989       .  S
O1850      H1873   0.989       .  S
O1851      H1865   0.989       .  S
O1851      H1872   0.988       .  S
O1852      C1856   1.271       .  A
O1853      C1856   1.281       .  A
O1854      H1864   0.990       .  S
O1855      H1868   0.990       .  S
C1856      C2166   1.434       .  S
Zr1879     O1880   2.434       .  S
Zr1879     O1881   2.428       .  S
Zr1879     O1882   2.498       .  S
Zr1879     O1885   2.505       .  S
Zr1879     O1887   2.378       .  S
Zr1879     O1888   2.406       .  S
Zr1879     O1889   2.423       .  S
Zr1879     O1890   2.385       .  S
O1880      H1936   0.990       .  S
O1880      H1944   0.990       .  S
O1881      C1901   1.286       .  A
O1882      C1903   1.292       .  A
O1883     Zr1893   2.424       .  S
O1883      C1902   1.285       .  A
O1884     Zr1892   2.395       .  S
O1884      C1903   1.266       .  A
O1885      C1902   1.302       .  A
O1886     Zr1894   2.471       .  S
O1886      C1901   1.290       .  A
O1887     Zr1892   2.395       .  S
O1887     Zr1894   2.347       .  S
O1888     Zr1893   2.408       .  S
O1888     Zr1894   2.381       .  S
O1888      H1923   0.966       .  S
O1889     Zr1892   2.415       .  S
O1889     Zr1909   2.399       .  S
O1889      H1926   0.966       .  S
O1890     Zr1893   2.385       .  S
O1890     Zr1909   2.364       .  S
Zr1891     O1916   2.444       .  S
Zr1891     O1910   2.431       .  S
Zr1891     O1918   2.389       .  S
Zr1891     O1906   2.389       .  S
Zr1891     O1897   2.402       .  S
Zr1891     O1898   2.401       .  S
Zr1891     O1899   2.365       .  S
Zr1891     O1900   2.366       .  S
Zr1892     O1911   2.435       .  S
Zr1892     O1904   2.434       .  S
Zr1892     O1905   2.435       .  S
Zr1892     O1898   2.392       .  S
Zr1892     O1899   2.365       .  S
Zr1893     O1895   2.435       .  S
Zr1893     O1917   2.437       .  S
Zr1893     O1919   2.484       .  S
Zr1893     O1897   2.370       .  S
Zr1893     O1900   2.391       .  S
Zr1894     O1920   2.435       .  S
Zr1894     O1921   2.435       .  S
Zr1894     O1896   2.437       .  S
Zr1894     O1897   2.401       .  S
Zr1894     O1898   2.424       .  S
O1895      H1932   0.990       .  S
O1896      H1927   0.990       .  S
O1896      H1941   0.990       .  S
O1898      H1924   0.966       .  S
O1899     Zr1909   2.369       .  S
O1900     Zr1909   2.395       .  S
O1900      H1925   0.966       .  S
C1901      C2019   1.507       .  S
C1902      C1986   1.508       .  S
C1903      C1996   1.496       .  S
O1904      H1940   0.990       .  S
O1905      C1907   1.285       .  A
O1906      C1907   1.274       .  A
C1907      C2129   1.453       .  S
O1908     Zr1909   2.439       .  S
O1908      H1937   0.990       .  S
Zr1909     O1912   2.437       .  S
Zr1909     O1913   2.438       .  S
Zr1909     O1914   2.405       .  S
O1910      C1915   1.285       .  A
O1911      H1928   0.990       .  S
O1911      H1943   0.990       .  S
O1912      H1929   0.990       .  S
O1913      H1933   0.990       .  S
O1913      H1942   0.990       .  S
O1914      C1915   1.279       .  A
C1915      C1949   1.473       .  S
O1916      H1935   0.990       .  S
O1916      H1939   0.990       .  S
O1917      H1931   0.990       .  S
O1917      H1938   0.990       .  S
O1918      C1922   1.276       .  A
O1919      C1922   1.292       .  A
O1920      H1930   0.990       .  S
O1921      H1934   0.990       .  S
C1922      C2239   1.493       .  S
C1945      C1946   1.406       .  A
C1945      C1950   1.394       .  A
C1945      F1952   1.358       .  S
C1946      C1947   1.405       .  A
C1947      C1948   1.397       .  A
C1947      F1954   1.358       .  S
C1948      C1949   1.408       .  A
C1948      F1953   1.358       .  S
C1949      C1950   1.405       .  A
C1950      F1951   1.356       .  S
C1955      C1956   1.406       .  A
C1955      C1960   1.397       .  A
C1955      F1962   1.353       .  S
C1956      C1957   1.412       .  A
C1957      C1958   1.407       .  A
C1957      F1964   1.358       .  S
C1958      C1959   1.409       .  A
C1958      F1963   1.357       .  S
C1959      C1960   1.411       .  A
C1960      F1961   1.359       .  S
C1965      C1966   1.418       .  A
C1965      C1970   1.409       .  A
C1965      F1972   1.356       .  S
C1966      C1967   1.403       .  A
C1967      C1968   1.400       .  A
C1967      F1974   1.354       .  S
C1968      C1969   1.420       .  A
C1968      F1973   1.358       .  S
C1969      C1970   1.408       .  A
C1970      F1971   1.357       .  S
C1975      C1980   1.396       .  A
C1975      F1982   1.357       .  S
C1976      C1977   1.402       .  A
C1977      C1978   1.398   1_655  A
C1977      F1984   1.358       .  S
C1978      C1979   1.404       .  A
C1978      F1983   1.358       .  S
C1980      F1981   1.358       .  S
C1985      C1986   1.409       .  A
C1985      C1990   1.410       .  A
C1985      F1992   1.357       .  S
C1986      C1987   1.419       .  A
C1987      C1988   1.402       .  A
C1987      F1994   1.358       .  S
C1988      C1989   1.405       .  A
C1988      F1993   1.354       .  S
C1989      C1990   1.417       .  A
C1990      F1991   1.357       .  S
C1995      C1996   1.415       .  A
C1995      C2000   1.406       .  A
C1995      F2002   1.358       .  S
C1996      C1997   1.406       .  A
C1997      C1998   1.400       .  A
C1997      F2004   1.353       .  S
C1998      C1999   1.413       .  A
C1998      F2003   1.358       .  S
C1999      C2000   1.409       .  A
C2000      F2001   1.357       .  S
C2005      C2006   1.397   1_655  A
C2005      C2010   1.376       .  A
C2005      F2012   1.359   1_655  S
C2006      C2007   1.399       .  A
C2007      C2008   1.394   1_455  A
C2007      F2014   1.357       .  S
C2008      C2009   1.403       .  A
C2008      F2013   1.357       .  S
C2009      C2010   1.398       .  A
C2010      F2011   1.360       .  S
C2015      C2016   1.412       .  A
C2015      C2020   1.416       .  A
C2015      F2022   1.357       .  S
C2016      C2017   1.417       .  A
C2017      C2018   1.397       .  A
C2017      F2024   1.359       .  S
C2018      C2019   1.409       .  A
C2018      F2023   1.358       .  S
C2019      C2020   1.416       .  A
C2020      F2021   1.357       .  S
C2025      C2026   1.402       .  A
C2025      C2030   1.394       .  A
C2025      F2032   1.358       .  S
C2026      C2027   1.414   1_455  A
C2027      C2028   1.395       .  A
C2027      F2034   1.359       .  S
C2028      C2029   1.404       .  A
C2028      F2033   1.358       .  S
C2029      C2030   1.416   1_655  A
C2030      F2031   1.359       .  S
C2035      C2036   1.410       .  A
C2035      C2040   1.412       .  A
C2035      F2042   1.357       .  S
C2036      C2037   1.410       .  A
C2037      C2038   1.393       .  A
C2037      F2044   1.359       .  S
C2038      C2039   1.407       .  A
C2038      F2043   1.358       .  S
C2039      C2040   1.412       .  A
C2040      F2041   1.357       .  S
C2045      C2046   1.408       .  A
C2045      C2050   1.396       .  A
C2045      F2052   1.358       .  S
C2046      C2047   1.402   1_655  A
C2047      C2048   1.398       .  A
C2047      F2054   1.358       .  S
C2048      C2049   1.408       .  A
C2048      F2053   1.358       .  S
C2049      C2050   1.401   1_455  A
C2050      F2051   1.358       .  S
C2055      C2056   1.418       .  A
C2055      C2060   1.409       .  A
C2055      F2062   1.356       .  S
C2056      C2057   1.402       .  A
C2057      C2058   1.398       .  A
C2057      F2064   1.353       .  S
C2058      C2059   1.421       .  A
C2058      F2063   1.358       .  S
C2059      C2060   1.408       .  A
C2060      F2061   1.357       .  S
C2065      C2066   1.412       .  A
C2065      C2070   1.397       .  A
C2065      F2072   1.359       .  S
C2066      C2067   1.408       .  A
C2067      C2068   1.406       .  A
C2067      F2074   1.357       .  S
C2068      C2069   1.412       .  A
C2068      F2073   1.358       .  S
C2069      C2070   1.406       .  A
C2070      F2071   1.354       .  S
C2075      C2076   1.408       .  A
C2075      C2080   1.392       .  A
C2075      F2082   1.358       .  S
C2077      C2078   1.412       .  A
C2077      F2084   1.357       .  S
C2078      F2083   1.357       .  S
C2079      C2080   1.408       .  A
C2080      F2081   1.359       .  S
C2085      C2086   1.413       .  A
C2085      F2092   1.358       .  S
C2086      C2087   1.408   1_565  A
C2087      C2088   1.394       .  A
C2087      F2094   1.358       .  S
C2088      C2089   1.414       .  A
C2088      F2093   1.358       .  S
C2090      F2091   1.358   1_554  S
C2095      C2096   1.408       .  A
C2095      C2100   1.407       .  A
C2095      F2102   1.357       .  S
C2096      C2097   1.412       .  A
C2097      C2098   1.398       .  A
C2097      F2104   1.359       .  S
C2098      C2099   1.406       .  A
C2098      F2103   1.353       .  S
C2099      C2100   1.414       .  A
C2100      F2101   1.358       .  S
C2105      C2106   1.421       .  A
C2105      C2110   1.408       .  A
C2105      F2112   1.358       .  S
C2106      C2107   1.406       .  A
C2107      C2108   1.405       .  A
C2107      F2114   1.358       .  S
C2108      C2109   1.417       .  A
C2108      F2113   1.354       .  S
C2109      C2110   1.400       .  A
C2110      F2111   1.353       .  S
C2115      C2116   1.411       .  A
C2115      C2120   1.414       .  A
C2115      F2122   1.357       .  S
C2116      C2117   1.409       .  A
C2117      C2118   1.399       .  A
C2117      F2124   1.358       .  S
C2118      C2119   1.409       .  A
C2118      F2123   1.359       .  S
C2119      C2120   1.412       .  A
C2120      F2121   1.357       .  S
C2125      C2126   1.404       .  A
C2125      C2130   1.383       .  A
C2125      F2132   1.359       .  S
C2126      C2127   1.402       .  A
C2127      C2128   1.402       .  A
C2127      F2134   1.357       .  S
C2128      C2129   1.407       .  A
C2128      F2133   1.356       .  S
C2129      C2130   1.398       .  A
C2130      F2131   1.359       .  S
C2135      C2136   1.411       .  A
C2135      C2140   1.412       .  A
C2135      F2142   1.357       .  S
C2137      C2138   1.393       .  A
C2137      F2144   1.359       .  S
C2138      F2143   1.359       .  S
C2139      C2140   1.412       .  A
C2140      F2141   1.357       .  S
C2145      C2146   1.408       .  A
C2145      C2150   1.400       .  A
C2145      F2152   1.358       .  S
C2146      C2147   1.410       .  A
C2147      C2148   1.413       .  A
C2148      C2149   1.411       .  A
C2149      C2150   1.409       .  A
C2150      F2151   1.359       .  S
C2155      C2156   1.412       .  A
C2155      C2160   1.413       .  A
C2155      F2162   1.357       .  S
C2156      C2157   1.410       .  A
C2157      C2158   1.399       .  A
C2157      F2164   1.358       .  S
C2158      C2159   1.410       .  A
C2158      F2163   1.359       .  S
C2159      C2160   1.410       .  A
C2160      F2161   1.357       .  S
C2165      C2166   1.398       .  A
C2165      C2170   1.374       .  A
C2165      F2172   1.359       .  S
C2166      C2167   1.400       .  A
C2167      C2168   1.396       .  A
C2167      F2174   1.357       .  S
C2168      C2169   1.404       .  A
C2168      F2173   1.357       .  S
C2169      C2170   1.397       .  A
C2170      F2171   1.360       .  S
C2175      C2176   1.407       .  A
C2175      C2180   1.395       .  A
C2176      C2177   1.413       .  A
C2177      C2178   1.392       .  A
C2177      F2184   1.358       .  S
C2178      C2179   1.406       .  A
C2178      F2183   1.358       .  S
C2179      C2180   1.412       .  A
C2180      F2181   1.358       .  S
C2185      C2186   1.417       .  A
C2185      C2190   1.417       .  A
C2185      F2192   1.357       .  S
C2187      C2188   1.390       .  A
C2187      F2194   1.359       .  S
C2188      F2193   1.358       .  S
C2189      C2190   1.411       .  A
C2190      F2191   1.357       .  S
C2195      C2196   1.405       .  A
C2195      C2200   1.396   1_565  A
C2195      F2202   1.358       .  S
C2196      C2197   1.397       .  A
C2197      C2198   1.374       .  A
C2197      F2204   1.360       .  S
C2198      C2199   1.400   1_565  A
C2198      F2203   1.359   1_565  S
C2199      C2200   1.399       .  A
C2200      F2201   1.357       .  S
C2205      C2206   1.410       .  A
C2205      C2210   1.413       .  A
C2205      F2212   1.357       .  S
C2206      C2207   1.410       .  A
C2207      C2208   1.401       .  A
C2207      F2214   1.358       .  S
C2208      C2209   1.407       .  A
C2208      F2213   1.358       .  S
C2209      C2210   1.411       .  A
C2210      F2211   1.358       .  S
C2215      C2216   1.409       .  A
C2215      C2220   1.412       .  A
C2215      F2222   1.357       .  S
C2216      C2217   1.415       .  A
C2217      C2218   1.397       .  A
C2217      F2224   1.359       .  S
C2218      C2219   1.405       .  A
C2218      F2223   1.353       .  S
C2219      C2220   1.416       .  A
C2220      F2221   1.357       .  S
C2225      C2226   1.407       .  A
C2225      C2230   1.397       .  A
C2225      F2232   1.352       .  S
C2226      C2227   1.412       .  A
C2227      C2228   1.404       .  A
C2227      F2234   1.358       .  S
C2228      C2229   1.408       .  A
C2228      F2233   1.357       .  S
C2229      C2230   1.410       .  A
C2230      F2231   1.358       .  S
C2235      C2236   1.408       .  A
C2235      C2240   1.393       .  A
C2235      F2242   1.359       .  S
C2236      C2237   1.411       .  A
C2237      C2238   1.412       .  A
C2237      F2244   1.357       .  S
C2238      C2239   1.411       .  A
C2238      F2243   1.357       .  S
C2239      C2240   1.410       .  A
C2240      F2241   1.359       .  S
C2245      C2246   1.398       .  A
C2245      C2250   1.382   1_565  A
C2245      F2252   1.359       .  S
C2246      C2247   1.406       .  A
C2247      C2248   1.402   1_565  A
C2247      F2254   1.357       .  S
C2248      C2249   1.403       .  A
C2248      F2253   1.357       .  S
C2249      C2250   1.402       .  A
C2250      F2251   1.359       .  S
C2255      C2256   1.401       .  A
C2255      C2260   1.396       .  A
C2255      F2262   1.348       .  S
C2256      C2257   1.406       .  A
C2257      C2258   1.412       .  A
C2257      F2264   1.357       .  S
C2258      C2259   1.411       .  A
C2258      F2263   1.357       .  S
C2259      C2260   1.402       .  A
C2260      F2261   1.359       .  S
C2265      C2266   1.409       .  A
C2265      C2270   1.396       .  A
C2265      F2272   1.358       .  S
C2266      C2267   1.402   1_545  A
C2267      C2268   1.395       .  A
C2267      F2274   1.358       .  S
C2268      C2269   1.410       .  A
C2268      F2273   1.358       .  S
C2269      C2270   1.403   1_565  A
C2270      F2271   1.358       .  S
C2275      C2276   1.416       .  A
C2275      C2280   1.403       .  A
C2275      F2282   1.358       .  S
C2276      C2277   1.404       .  A
C2277      C2278   1.399       .  A
C2277      F2284   1.353       .  S
C2278      C2279   1.417       .  A
C2278      F2283   1.358       .  S
C2279      C2280   1.409       .  A
C2280      F2281   1.357       .  S
C2285      C2286   1.405       .  A
C2285      C2290   1.400       .  A
C2285      F2292   1.357       .  S
C2286      C2287   1.417       .  A
C2287      C2288   1.412       .  A
C2287      F2294   1.357       .  S
C2288      C2289   1.409       .  A
C2288      F2293   1.357       .  S
C2289      C2290   1.420       .  A
C2290      F2291   1.358       .  S
C2295      C2296   1.413       .  A
C2295      C2300   1.414       .  A
C2295      F2302   1.357       .  S
C2296      C2297   1.408       .  A
C2297      C2298   1.398       .  A
C2297      F2304   1.359       .  S
C2298      C2299   1.413       .  A
C2298      F2303   1.359       .  S
C2299      C2300   1.412       .  A
C2300      F2301   1.357       .  S
