geometry optimzed in LAMMPS
_audit_creation_date              2020-12-01 
_audit_creation_method            'lammps2cif' 
_symmetry_space_group_name_H-M    'P1' 
_symmetry_Int_Tables_number       1 
_symmetry_cell_setting            triclinic 
loop_ 
_symmetry_equiv_pos_as_xyz 
  x,y,z 
_cell_length_a                    52.57908859 
_cell_length_b                    52.41650315034762 
_cell_length_c                    28.990327376137618 
_cell_angle_alpha                 89.77564763015297 
_cell_angle_beta                  89.87931883128088 
_cell_angle_gamma                 90.00251126818735 
loop_ 
_atom_site_label 
_atom_site_type_symbol 
_atom_site_fract_x 
_atom_site_fract_y 
_atom_site_fract_z 
_atom_site_charge 
O1          O  0.41225107  0.91477118  0.88577087    -0.84900
O2          O  0.46070592  0.90985945  0.84709495    -0.82000
C3          C  0.47862395  0.90212340  0.82181534     0.98500
O4          O  0.47623664  0.88134887  0.80006031    -0.82000
O5          O  0.46735170  0.84329110  0.86624170    -0.84700
C6          C  0.45490550  0.83035153  0.89545604     1.03000
O7          O  0.43078682  0.83123985  0.89684699    -0.77400
O8          O  0.41635790  0.87911898  0.92469850    -0.77600
C9          C  0.41150499  0.90259144  0.92344728     1.03000
O10         O  0.39121155  0.90181183  0.79850373    -0.84900
O11         O  0.43786917  0.90181568  0.75843042    -0.82000
C12         C  0.43324113  0.88319815  0.73224449     0.98500
O13         O  0.43504474  0.86063045  0.74692879    -0.82000
O14         O  0.43089518  0.82049483  0.80728298    -0.84600
C15         C  0.40711244  0.81727107  0.80872053     1.03000
O16         O  0.39296111  0.83415836  0.82549484    -0.77500
O17         O  0.37641334  0.88022355  0.85736579    -0.77600
C18         C  0.37260963  0.89346518  0.82139960     1.03000
Cr19       Cr  0.42585081  0.90473814  0.82370856     1.93700
Cr20       Cr  0.45090115  0.85290180  0.80716243     1.93200
Cr21       Cr  0.40579933  0.85724406  0.87341446     1.39100
O22         O  0.42760347  0.87165562  0.83529887    -1.22700
O23         O  0.40750894  0.62404282  0.16484271    -0.84900
O24         O  0.45702169  0.62458045  0.20088930    -0.82000
C25         C  0.47699565  0.63347193  0.21911443     0.98500
O26         O  0.47664519  0.65569106  0.23590544    -0.82000
O27         O  0.46403553  0.69569172  0.17425113    -0.84700
C28         C  0.44977601  0.70920622  0.14873753     1.03000
O29         O  0.42599983  0.70720392  0.15232786    -0.77400
O30         O  0.41050593  0.65990651  0.12593388    -0.77600
C31         C  0.40696296  0.63615651  0.12693383     1.03000
O32         O  0.38897835  0.63851402  0.25536576    -0.84900
O33         O  0.43720814  0.63498000  0.28950039    -0.82000
C34         C  0.43908577  0.65362229  0.31661488     0.98500
O35         O  0.44140122  0.67604158  0.30106843    -0.82000
O36         O  0.43228962  0.71671066  0.24362990    -0.84600
C37         C  0.40883298  0.72178151  0.24439221     1.03000
O38         O  0.39296328  0.70572261  0.22936444    -0.77500
O39         O  0.37331569  0.65967168  0.19743363    -0.77600
C40         C  0.36993667  0.64703021  0.23397835     1.03000
Cr41       Cr  0.42287702  0.63328303  0.22618850     1.93700
Cr42       Cr  0.45164674  0.68437785  0.23662374     1.93200
Cr43       Cr  0.40265618  0.68174476  0.17926622     1.39100
O44         O  0.42600542  0.66638630  0.21362952    -1.22700
O45         O  0.35821400  0.60967744  0.62906411    -0.84900
O46         O  0.32043280  0.57378281  0.62552326    -0.82000
C47         C  0.30462437  0.55682723  0.63686963     0.98500
O48         O  0.30190008  0.55104025  0.67919100    -0.82000
O49         O  0.34790794  0.53142554  0.70999166    -0.84700
C50         C  0.37084490  0.53110762  0.72237315     1.03000
O51         O  0.38193845  0.55140527  0.73437228    -0.77400
O52         O  0.38568591  0.58192453  0.65633886    -0.77600
C53         C  0.37845105  0.59690519  0.62487203     1.03000
O54         O  0.33291983  0.63316410  0.70561677    -0.84900
O55         O  0.29236351  0.60058397  0.69463467    -0.82000
C56         C  0.28606713  0.59543725  0.73568336     0.98500
O57         O  0.30041006  0.58219168  0.76082610    -0.82000
O58         O  0.34341933  0.55968977  0.79491065    -0.84600
C59         C  0.35529049  0.57865220  0.81125506     1.03000
O60         O  0.36536905  0.59484932  0.78496473    -0.77500
O61         O  0.37374660  0.62555190  0.71102039    -0.77600
C62         C  0.35509654  0.64051288  0.71536715     1.03000
Cr63       Cr  0.32708373  0.60283460  0.66660193     1.93700
Cr64       Cr  0.32474768  0.55784406  0.73401391     1.93200
Cr65       Cr  0.37435155  0.58786339  0.72059108     1.39100
O66         O  0.34212169  0.58267364  0.70683734    -1.22700
O67         O  0.12266312  0.58332276  0.42937312    -0.84900
O68         O  0.17167895  0.56964600  0.41023473    -0.82000
C69         C  0.17240428  0.54552619  0.40930186     0.98500
O70         O  0.16217446  0.53329504  0.37662222    -0.82000
O71         O  0.12757724  0.52440669  0.30465301    -0.84700
C72         C  0.10554921  0.52183528  0.32183444     1.03000
O73         O  0.09617652  0.53976878  0.34531689    -0.77400
O74         O  0.08950164  0.58806958  0.38470743    -0.77600
C75         C  0.09920367  0.58712816  0.42452859     1.03000
O76         O  0.12575729  0.62411773  0.36317899    -0.84900
O77         O  0.17375218  0.60792959  0.33946486    -0.82000
C78         C  0.19104533  0.59390122  0.32333112     0.98500
O79         O  0.18769448  0.57008803  0.32026185    -0.82000
O80         O  0.15036942  0.56506435  0.25332410    -0.84600
C81         C  0.12859210  0.56560405  0.23498923     1.03000
O82         O  0.10881503  0.56334662  0.25943111    -0.77500
O83         O  0.10778433  0.60990829  0.30024218    -0.77600
C84         C  0.11457661  0.62821855  0.32528060     1.03000
Cr85       Cr  0.14749981  0.59457527  0.38235401     1.93700
Cr86       Cr  0.15541340  0.54987565  0.31579933     1.93200
Cr87       Cr  0.10303839  0.57505125  0.32413080     1.39100
O88         O  0.13534087  0.57311793  0.34103763    -1.22700
O89         O  0.06532536  0.90386154  0.15556211    -0.84900
O90         O  0.01841324  0.90347133  0.19997543    -0.82000
C91         C  0.99999849  0.89576227  0.22409201     0.98500
O92         O  0.00057244  0.87419400  0.24381429    -0.82000
O93         O  0.00545419  0.83628609  0.17731271    -0.84700
C94         C  0.01624009  0.82249556  0.14756106     1.03000
O95         O  0.04028709  0.82212483  0.14383507    -0.77400
O96         O  0.05727285  0.86979257  0.11499778    -0.77600
C97         C  0.06392282  0.89289314  0.11669220     1.03000
O98         O  0.08756632  0.88669095  0.24082333    -0.84900
O99         O  0.04245274  0.89116459  0.28569818    -0.82000
C100        C  0.04312238  0.87191568  0.31198557     0.98500
O101        O  0.04017075  0.84986346  0.29590580    -0.82000
O102        O  0.04186700  0.81078175  0.23402934    -0.84600
C103        C  0.06540795  0.80631075  0.23080418     1.03000
O104        O  0.08003195  0.82208593  0.21162803    -0.77500
O105        O  0.09882646  0.86712278  0.17775659    -0.77600
C106        C  0.10470116  0.87929879  0.21378017     1.03000
Cr107      Cr  0.05295139  0.89393896  0.21918965     1.93700
Cr108      Cr  0.02369862  0.84419221  0.23536068     1.93200
Cr109      Cr  0.06746519  0.84634891  0.16506211     1.39100
O110        O  0.04774273  0.86158343  0.20595120    -1.22700
O111        O  0.05188440  0.61536358  0.89812792    -0.84900
O112        O  0.01945819  0.61562241  0.82180090    -0.82000
C113        C  0.99908701  0.62691715  0.83237356     0.98500
O114        O  0.99936855  0.65025886  0.84266095    -0.82000
O115        O  0.01881723  0.69745208  0.86850941    -0.84700
C116        C  0.02687505  0.69730458  0.90972613     1.03000
O117        O  0.04494520  0.68292030  0.92173846    -0.77400
O118        O  0.08022445  0.64387127  0.91886351    -0.77600
C119        C  0.06822421  0.62338533  0.92645357     1.03000
O120        O  0.09359179  0.62526021  0.83764623    -0.84900
O121        O  0.06117228  0.63092937  0.76601089    -0.82000
C122        C  0.04483549  0.64067328  0.73972258     0.98500
O123        O  0.02641781  0.65349494  0.75584390    -0.82000
O124        O  0.04763968  0.69883460  0.78443102    -0.84600
C125        C  0.06223333  0.71336606  0.80660055     1.03000
O126        O  0.06954212  0.70747932  0.84663051    -0.77500
O127        O  0.10131875  0.66625624  0.83727411    -0.77600
C128        C  0.10854861  0.64366445  0.83070623     1.03000
Cr129      Cr  0.05588302  0.62438807  0.83189577     1.93700
Cr130      Cr  0.02504053  0.67360871  0.81523444     1.93200
Cr131      Cr  0.07226262  0.67379266  0.87829465     1.39100
O132        O  0.05083626  0.65731342  0.84206450    -1.22700
O133        O  0.33542493  0.94514823  0.42707282    -0.84900
O134        O  0.29055526  0.96044193  0.38916513    -0.82000
C135        C  0.29069116  0.98461934  0.38685908     0.98500
O136        O  0.30395376  0.99628641  0.35712381    -0.82000
O137        O  0.34529057  0.00393259  0.29893403    -0.84700
C138        C  0.36390937  0.00761167  0.32561743     1.03000
O139        O  0.37082307  0.98997869  0.35251997    -0.77400
O140        O  0.37324994  0.94230755  0.39560851    -0.77600
C141        C  0.35896661  0.94174904  0.43066016     1.03000
O142        O  0.33998312  0.90478122  0.36117310    -0.84900
O143        O  0.29690491  0.92124242  0.31982232    -0.82000
C144        C  0.28115033  0.93497502  0.29892823     0.98500
O145        O  0.28460304  0.95873641  0.29585929    -0.82000
O146        O  0.32886815  0.96213543  0.24384711    -0.84600
C147        C  0.35224709  0.96108808  0.23374712     1.03000
O148        O  0.36888332  0.96481797  0.26443024    -0.77500
O149        O  0.36607105  0.91915863  0.30800581    -0.77600
C150        C  0.35589433  0.90093211  0.32929425     1.03000
Cr151      Cr  0.31693916  0.93463323  0.37147058     1.93700
Cr152      Cr  0.31695249  0.97862304  0.30145360     1.93200
Cr153      Cr  0.36723517  0.95436966  0.33089426     1.39100
O154        O  0.33372379  0.95593980  0.33517400    -1.22700
O155        O  0.12576456  0.93529307  0.61839067    -0.84900
O156        O  0.17314957  0.95351810  0.64065955    -0.82000
C157        C  0.17006329  0.97715709  0.63449641     0.98500
O158        O  0.15820344  0.99013250  0.66455204    -0.82000
O159        O  0.12342524  0.99961008  0.73662551    -0.84700
C160        C  0.10177197  0.00079303  0.71816680     1.03000
O161        O  0.09320719  0.98118520  0.69834355    -0.77400
O162        O  0.09106022  0.93233291  0.66022160    -0.77600
C163        C  0.10217279  0.93136010  0.62154377     1.03000
O164        O  0.13009713  0.89765071  0.68855127    -0.84900
O165        O  0.17552785  0.91869139  0.71614189    -0.82000
C166        C  0.19168899  0.93497234  0.72881058     0.98500
O167        O  0.18647981  0.95844693  0.72685278    -0.82000
O168        O  0.14830477  0.96264464  0.79258065    -0.84600
C169        C  0.12653392  0.95935829  0.81045017     1.03000
O170        O  0.10678977  0.95897248  0.78554470    -0.77500
O171        O  0.10732729  0.91142491  0.74621889    -0.77600
C172        C  0.11625667  0.89312510  0.72312414     1.03000
Cr173      Cr  0.14988697  0.92804193  0.66900064     1.93700
Cr174      Cr  0.15268370  0.97583793  0.72830913     1.93200
Cr175      Cr  0.10223342  0.94640226  0.72116788     1.39100
O176        O  0.13478635  0.94999783  0.70613029    -1.22700
O177        O  0.59484217  0.44513725  0.36999869    -0.84900
O178        O  0.59517075  0.47650569  0.29260118    -0.82000
C179        C  0.60529460  0.49739768  0.30394109     0.98500
O180        O  0.62837191  0.49807392  0.31591101    -0.82000
O181        O  0.67611070  0.48004357  0.34608996    -0.84700
C182        C  0.67562887  0.47136334  0.38707020     1.03000
O183        O  0.66097738  0.45328149  0.39765589    -0.77400
O184        O  0.62329720  0.41760880  0.39421494    -0.77600
C185        C  0.60321046  0.43035577  0.40090451     1.03000
O186        O  0.60663606  0.40219504  0.31242533    -0.84900
O187        O  0.61276115  0.43482250  0.23908583    -0.82000
C188        C  0.62195379  0.45199856  0.21354384     0.98500
O189        O  0.63430589  0.47058135  0.23043195    -0.82000
O190        O  0.68006202  0.45127482  0.26264508    -0.84600
C191        C  0.69436560  0.43688075  0.28597674     1.03000
O192        O  0.68758731  0.42873744  0.32505543    -0.77500
O193        O  0.64760316  0.39570777  0.31422915    -0.77600
C194        C  0.62548136  0.38756413  0.30665563     1.03000
Cr195      Cr  0.60492558  0.44025996  0.30463730     1.93700
Cr196      Cr  0.65330332  0.47294794  0.29106570     1.93200
Cr197      Cr  0.65354380  0.42547931  0.35467997     1.39100
O198        O  0.63737256  0.44640533  0.31679628    -1.22700
O199        O  0.88250572  0.45528560  0.63816923    -0.84900
O200        O  0.88211033  0.48238313  0.72101151    -0.82000
C201        C  0.87023807  0.50329717  0.71797081     0.98500
O202        O  0.84670824  0.50360639  0.70942450    -0.82000
O203        O  0.80002449  0.48536743  0.67800870    -0.84700
C204        C  0.80091496  0.48177258  0.63472050     1.03000
O205        O  0.81558059  0.46506504  0.61800851    -0.77400
O206        O  0.85381220  0.42890962  0.61146089    -0.77600
C207        C  0.87425614  0.44119033  0.60630734     1.03000
O208        O  0.87290161  0.40930613  0.68904341    -0.84900
O209        O  0.86818225  0.43661657  0.76743723    -0.82000
C210        C  0.85854296  0.45069506  0.79767431     0.98500
O211        O  0.84470030  0.46949575  0.78677377    -0.82000
O212        O  0.80035968  0.44884738  0.75321181    -0.84600
C213        C  0.78523696  0.43720860  0.72705047     1.03000
O214        O  0.79064957  0.43467979  0.68497639    -0.77500
O215        O  0.83189814  0.40162198  0.68668704    -0.77600
C216        C  0.85445929  0.39398083  0.69270420     1.03000
Cr217      Cr  0.87382722  0.44661799  0.70308428     1.93700
Cr218      Cr  0.82428021  0.47503551  0.72890926     1.93200
Cr219      Cr  0.82432767  0.43401787  0.65351483     1.39100
O220        O  0.84091370  0.45221566  0.69491148    -1.22700
O221        O  0.91846736  0.36445883  0.11099332    -0.84900
O222        O  0.93019997  0.31714945  0.14628784    -0.82000
C223        C  0.95420237  0.31534607  0.14570929     0.98500
O224        O  0.96755546  0.32810353  0.17354196    -0.82000
O225        O  0.97960057  0.36701399  0.23498056    -0.84700
C226        C  0.98352300  0.38754248  0.21318900     1.03000
O227        O  0.96588955  0.39697698  0.18903383    -0.77400
O228        O  0.91912280  0.40175690  0.14483901    -0.77600
C229        C  0.91737381  0.38846754  0.10863382     1.03000
O230        O  0.87899359  0.36999694  0.17727354    -0.84900
O231        O  0.89320199  0.32510503  0.21816575    -0.82000
C232        C  0.90605992  0.30738964  0.23590774     0.98500
O233        O  0.93003035  0.30942032  0.23723622    -0.82000
O234        O  0.93876809  0.35186759  0.29321591    -0.84600
C235        C  0.93853120  0.37504359  0.30544626     1.03000
O236        O  0.94021082  0.39261318  0.27556897    -0.77500
O237        O  0.89417950  0.39423628  0.23173448    -0.77600
C238        C  0.87546456  0.38579789  0.20930888     1.03000
Cr239      Cr  0.90715299  0.34533311  0.16620385     1.93700
Cr240      Cr  0.95224910  0.34066996  0.23228316     1.93200
Cr241      Cr  0.92993635  0.39363802  0.20941814     1.39100
O242        O  0.92989925  0.36003496  0.20229557    -1.22700
O243        O  0.89606715  0.15120635  0.90598451    -0.84900
O244        O  0.93114296  0.19007115  0.89761080    -0.82000
C245        C  0.94843314  0.20395979  0.88078812     0.98500
O246        O  0.95301839  0.20399890  0.83779912    -0.82000
O247        O  0.97217698  0.15626713  0.81411887    -0.84700
C248        C  0.97227710  0.13247135  0.80774481     1.03000
O249        O  0.95171951  0.12040459  0.80196104    -0.77400
O250        O  0.92287711  0.12185618  0.88239411    -0.77600
C251        C  0.90819694  0.13071780  0.91284384     1.03000
O252        O  0.87005020  0.17078164  0.82659195    -0.84900
O253        O  0.90190845  0.21236504  0.82479987    -0.82000
C254        C  0.90574755  0.21603884  0.78225912     0.98500
O255        O  0.91913352  0.20061294  0.75959179    -0.82000
O256        O  0.94079821  0.15554218  0.73298257    -0.84600
C257        C  0.92158080  0.14254086  0.72144312     1.03000
O258        O  0.90686284  0.13342592  0.75138513    -0.77500
O259        O  0.87826007  0.12989815  0.82886650    -0.77600
C260        C  0.86281972  0.14797235  0.82250435     1.03000
Cr261      Cr  0.90135635  0.17974754  0.86088733     1.93700
Cr262      Cr  0.94447304  0.17787553  0.78903932     1.93200
Cr263      Cr  0.91558866  0.12896688  0.81663859     1.39100
O264        O  0.92076755  0.16214920  0.82260426    -1.22700
O265        O  0.59516092  0.07698925  0.62620123    -0.84900
O266        O  0.59283219  0.04876494  0.70620477    -0.82000
C267        C  0.60495870  0.02805267  0.70158206     0.98500
O268        O  0.62855069  0.02799683  0.69400493    -0.82000
O269        O  0.67623887  0.04649805  0.67070341    -0.84700
C270        C  0.67586445  0.05047045  0.62750709     1.03000
O271        O  0.66174479  0.06739842  0.61038110    -0.77400
O272        O  0.62430871  0.10359604  0.60140892    -0.77600
C273        C  0.60410637  0.09103881  0.59492293     1.03000
O274        O  0.60388776  0.12294840  0.67865620    -0.84900
O275        O  0.60523087  0.09361634  0.75694151    -0.82000
C276        C  0.61290172  0.07756683  0.78607007     0.98500
O277        O  0.62716480  0.05927597  0.77442698    -0.82000
O278        O  0.67218428  0.08109526  0.74831443    -0.84600
C279        C  0.68804207  0.09367690  0.72505936     1.03000
O280        O  0.68497816  0.09623596  0.68211599    -0.77500
O281        O  0.64504709  0.12946776  0.67996606    -0.77600
C282        C  0.62271618  0.13776259  0.68415852     1.03000
Cr283      Cr  0.60173623  0.08507341  0.69134232     1.93700
Cr284      Cr  0.64995401  0.05550436  0.71914701     1.93200
Cr285      Cr  0.65264356  0.09776444  0.64626852     1.39100
O286        O  0.63467466  0.07925594  0.68546189    -1.22700
O287        O  0.86880143  0.09066721  0.37174575    -0.84900
O288        O  0.87211171  0.04267569  0.33442888    -0.82000
C289        C  0.86668523  0.02299876  0.31181051     0.98500
O290        O  0.84646180  0.02182440  0.28825224    -0.82000
O291        O  0.80548623  0.02661871  0.34862206    -0.84700
C292        C  0.79019962  0.03761603  0.37566434     1.03000
O293        O  0.78852067  0.06176964  0.37648266    -0.77400
O294        O  0.83368394  0.08197082  0.40878894    -0.77600
C295        C  0.85671100  0.08861488  0.40938436     1.03000
O296        O  0.85443608  0.10961493  0.28214067    -0.84900
O297        O  0.86316818  0.06295617  0.24430096    -0.82000
C298        C  0.84528628  0.06274631  0.21538428     0.98500
O299        O  0.82273141  0.05887472  0.22842278    -0.82000
O300        O  0.78076410  0.05986896  0.28506141    -0.84600
C301        C  0.77452175  0.08311775  0.28704964     1.03000
O302        O  0.78918364  0.09934541  0.30446594    -0.77500
O303        O  0.83176564  0.12182781  0.34069262    -0.77600
C304        C  0.84487682  0.12741858  0.30534206     1.03000
Cr305      Cr  0.86223404  0.07597510  0.30907698     1.93700
Cr306      Cr  0.81505871  0.04360550  0.28972086     1.93200
Cr307      Cr  0.81207519  0.08963995  0.35494068     1.39100
O308        O  0.82979729  0.06949118  0.31847192    -1.22700
O309        O  0.55864743  0.37796002  0.90370963    -0.84900
O310        O  0.54598292  0.32860158  0.88163008    -0.82000
C311        C  0.52199602  0.32885025  0.88409640     0.98500
O312        O  0.50918944  0.33971865  0.85287189    -0.82000
O313        O  0.49811088  0.37479081  0.78488803    -0.84700
C314        C  0.49578918  0.39648356  0.80301957     1.03000
O315        O  0.51467260  0.40689472  0.82222347    -0.77400
O316        O  0.56293473  0.41219312  0.86096520    -0.77600
C317        C  0.56251678  0.40161784  0.90026827     1.03000
O318        O  0.59841868  0.37733661  0.83730355    -0.84900
O319        O  0.58284770  0.32939710  0.80896100    -0.82000
C320        C  0.56860780  0.31236368  0.79238219     0.98500
O321        O  0.54480199  0.31567944  0.79126882    -0.82000
O322        O  0.53670276  0.35405647  0.72702143    -0.84600
C323        C  0.53759431  0.37626067  0.70975771     1.03000
O324        O  0.53711110  0.39555691  0.73565454    -0.77500
O325        O  0.58460536  0.39583885  0.77474100    -0.77600
C326        C  0.60289349  0.38889725  0.79990540     1.03000
Cr327      Cr  0.56974680  0.35432789  0.85471902     1.93700
Cr328      Cr  0.52401062  0.34754614  0.79095577     1.93200
Cr329      Cr  0.54964604  0.40004792  0.79983262     1.39100
O330        O  0.54774630  0.36732857  0.81514057    -1.22700
O331        O  0.55240615  0.14990590  0.09810950    -0.84900
O332        O  0.54397782  0.19927474  0.12418386    -0.82000
C333        C  0.51999506  0.20101386  0.12265853     0.98500
O334        O  0.50653422  0.19044869  0.15349590    -0.82000
O335        O  0.49360472  0.15500768  0.22117310    -0.84700
C336        C  0.48887889  0.13387733  0.20228816     1.03000
O337        O  0.50612026  0.12309051  0.17916446    -0.77400
O338        O  0.55299867  0.11427147  0.13779194    -0.77600
C339        C  0.55308946  0.12591547  0.09952928     1.03000
O340        O  0.59277113  0.14541328  0.16341275    -0.84900
O341        O  0.58124574  0.19371392  0.19554298    -0.82000
C342        C  0.56868976  0.21180015  0.21295939     0.98500
O343        O  0.54466724  0.21081416  0.21383852    -0.82000
O344        O  0.53522041  0.17166662  0.27611530    -0.84600
C345        C  0.53467812  0.14913521  0.29192908     1.03000
O346        O  0.53071539  0.13050902  0.26543431    -0.77500
O347        O  0.57693818  0.12625683  0.22405130    -0.77600
C348        C  0.59584827  0.13245785  0.19981715     1.03000
Cr349      Cr  0.56588053  0.17113421  0.14834474     1.93700
Cr350      Cr  0.52149585  0.18042629  0.21405945     1.93200
Cr351      Cr  0.54176916  0.12609217  0.20026916     1.39100
O352        O  0.54301244  0.15916839  0.18742351    -1.22700
C353        C  0.48183282  0.28006957  0.94913805    -0.05100
C354        C  0.49549584  0.27844862  0.99082042     0.09100
C355        C  0.51385634  0.29711038  0.00114882    -0.02400
C356        C  0.52142973  0.31479632  0.96719359    -0.00700
C357        C  0.50966129  0.31484627  0.92316150    -0.04300
C358        C  0.48837673  0.29876602  0.91580380     0.02700
C359        C  0.49533228  0.25458576  0.01923793     0.09500
C360        C  0.52640515  0.29675896  0.04575988     0.35400
C361        C  0.47426209  0.30015157  0.87298718     0.38900
C362        C  0.51279721  0.23525381  0.00768776    -0.04700
C363        C  0.51964949  0.21669999  0.04055176     0.02500
C364        C  0.50852398  0.21686806  0.08520012    -0.04300
C365        C  0.48874643  0.23449623  0.09468575    -0.00500
C366        C  0.48235926  0.25345350  0.06178207    -0.03100
C367        C  0.52524679  0.23565200  0.96290451     0.36200
C368        C  0.47639978  0.23460247  0.13943091     0.39800
C369        C  0.53929777  0.19840967  0.02853261     0.38900
C370        C  0.46351211  0.27272322  0.07251188     0.35800
C371        C  0.46219220  0.26145150  0.93954295     0.36500
C372        C  0.54240498  0.33186379  0.97737908     0.39800
N373        N  0.55526780  0.18439436  0.01799828    -0.38300
N374        N  0.53522935  0.23592195  0.92728413    -0.39900
N375        N  0.46651924  0.23469287  0.17515794    -0.37600
N376        N  0.44844422  0.28810236  0.08098487    -0.40000
N377        N  0.53629160  0.29646850  0.08139724    -0.39800
N378        N  0.55944819  0.34487794  0.98639464    -0.37400
N379        N  0.46281535  0.30138367  0.83898550    -0.38500
N380        N  0.44657220  0.24651536  0.93187414    -0.40100
C381        C  0.66760632  0.13318866  0.21778888    -0.05100
C382        C  0.67152374  0.10952927  0.23951117     0.09100
C383        C  0.65084695  0.09325325  0.24879806    -0.02400
C384        C  0.62609495  0.10045516  0.23543189    -0.00700
C385        C  0.62191486  0.12437361  0.21357400    -0.04300
C386        C  0.64296157  0.14068199  0.20500498     0.02700
C387        C  0.69776536  0.10187416  0.25217115     0.09500
C388        C  0.65520579  0.06909325  0.27209633     0.35400
C389        C  0.63964441  0.16550611  0.18378833     0.38900
C390        C  0.70735908  0.10812031  0.29599073    -0.04700
C391        C  0.73286237  0.10284094  0.30667926     0.02500
C392        C  0.74864823  0.09076061  0.27376341    -0.04300
C393        C  0.73885842  0.08408733  0.23018213    -0.00500
C394        C  0.71347808  0.08994225  0.21921426    -0.03100
C395        C  0.69086788  0.11979777  0.33011911     0.36200
C396        C  0.75497426  0.07158646  0.19644526     0.39800
C397        C  0.74250108  0.10887502  0.35228139     0.38900
C398        C  0.70348536  0.08394521  0.17393249     0.35800
C399        C  0.68912848  0.14990244  0.20881579     0.36500
C400        C  0.60530849  0.08265222  0.24250390     0.39800
N401        N  0.75025294  0.11367699  0.38856249    -0.38300
N402        N  0.67769082  0.12897070  0.35744282    -0.39900
N403        N  0.76780509  0.06156605  0.16955859    -0.37600
N404        N  0.69544932  0.07928302  0.13780488    -0.40000
N405        N  0.65882649  0.04991701  0.29088560    -0.39800
N406        N  0.58883563  0.06830326  0.24798931    -0.37400
N407        N  0.63766308  0.18534231  0.16663043    -0.38500
N408        N  0.70632432  0.16314007  0.20172120    -0.40100
C409        C  0.59510185  0.20489976  0.68237025    -0.05100
C410        C  0.60639861  0.21556596  0.72195337     0.09100
C411        C  0.62467682  0.20147275  0.74680486    -0.02400
C412        C  0.63084232  0.17638822  0.73332804    -0.00700
C413        C  0.61843527  0.16509651  0.69522798    -0.04300
C414        C  0.60127564  0.17983839  0.66877527     0.02700
C415        C  0.59721006  0.24059962  0.74014103     0.09500
C416        C  0.63629402  0.21246164  0.78750457     0.35400
C417        C  0.59066554  0.16961882  0.62658220     0.38900
C418        C  0.57494201  0.24125531  0.76716515    -0.04700
C419        C  0.56581531  0.26458744  0.78449597     0.02500
C420        C  0.57922449  0.28762779  0.77570220    -0.04300
C421        C  0.60203407  0.28675527  0.74959004    -0.00500
C422        C  0.61067553  0.26336008  0.73115364    -0.03100
C423        C  0.56137246  0.21771787  0.77705624     0.36200
C424        C  0.61618533  0.30994468  0.74003162     0.39800
C425        C  0.54272603  0.26455211  0.81206987     0.38900
C426        C  0.63305155  0.26272417  0.70185877     0.35800
C427        C  0.57655557  0.21953139  0.65642602     0.36500
C428        C  0.64936505  0.16203356  0.75977159     0.39800
N429        N  0.52418578  0.26444266  0.83364600    -0.38300
N430        N  0.55064363  0.19889623  0.78478973    -0.39900
N431        N  0.62749219  0.32840279  0.73211065    -0.37600
N432        N  0.65078832  0.26223757  0.67817681    -0.40000
N433        N  0.64546039  0.22125111  0.82003542    -0.39800
N434        N  0.66435930  0.15086002  0.78085894    -0.37400
N435        N  0.58242104  0.16178248  0.59249065    -0.38500
N436        N  0.56165515  0.23116944  0.63590387    -0.40100
C437        C  0.70285624  0.00643999  0.53628444    -0.05100
C438        C  0.72428420  0.02073288  0.52205648     0.09100
C439        C  0.73127820  0.04282249  0.54674599    -0.02400
C440        C  0.71670774  0.05087791  0.58462333    -0.00700
C441        C  0.69422034  0.03777475  0.59663238    -0.04300
C442        C  0.68773014  0.01506373  0.57350690     0.02700
C443        C  0.73876773  0.01443639  0.47916081     0.09500
C444        C  0.75252916  0.05836640  0.53119254     0.35400
C445        C  0.66529467  0.00095302  0.58760072     0.38900
C446        C  0.72922303  0.02262902  0.43616366    -0.04700
C447        C  0.74605358  0.02638939  0.39895274     0.02500
C448        C  0.77243801  0.02289661  0.40521553    -0.04300
C449        C  0.78118136  0.01031276  0.44516944    -0.00500
C450        C  0.76427601  0.00612624  0.48237524    -0.03100
C451        C  0.70261070  0.02941907  0.43133907     0.36200
C452        C  0.80768848  0.00315319  0.44903198     0.39800
C453        C  0.73627606  0.03427064  0.35440872     0.38900
C454        C  0.77349508  0.99556647  0.52548298     0.35800
C455        C  0.69585427  0.98355747  0.51148320     0.36500
C456        C  0.72475410  0.07308983  0.61053965     0.39800
N457        N  0.72801299  0.03988108  0.31883812    -0.38300
N458        N  0.68139220  0.03485260  0.42727670    -0.39900
N459        N  0.82884001  0.99731639  0.45231104    -0.37600
N460        N  0.78071123  0.98724024  0.56008318    -0.40000
N461        N  0.76926675  0.07092436  0.51852098    -0.39800
N462        N  0.73188390  0.09066223  0.63078888    -0.37400
N463        N  0.64746044  0.98966733  0.59923484    -0.38500
N464        N  0.69016386  0.96535914  0.49153488    -0.40100
C465        C  0.60726118  0.09835233  0.91013031    -0.05100
C466        C  0.58302325  0.08859060  0.92194995     0.09100
C467        C  0.56951994  0.07355253  0.88999365    -0.02400
C468        C  0.57971233  0.06930726  0.84572781    -0.00700
C469        C  0.60369914  0.07949012  0.83383038    -0.04300
C470        C  0.61788657  0.09311837  0.86661784     0.02700
C471        C  0.57188563  0.09440150  0.96812447     0.09500
C472        C  0.54503944  0.06276541  0.90248650     0.35400
C473        C  0.64352346  0.10142796  0.85581641     0.38900
C474        C  0.55153086  0.11181656  0.97212991    -0.04700
C475        C  0.54307157  0.11945288  0.01604626     0.02500
C476        C  0.55651616  0.11173283  0.05583875    -0.04300
C477        C  0.57582670  0.09304035  0.05198001    -0.00500
C478        C  0.58293039  0.08386982  0.00821940    -0.03100
C479        C  0.54032261  0.12308507  0.93114428     0.36200
C480        C  0.58971110  0.08445073  0.09237902     0.39800
C481        C  0.52038260  0.13501536  0.02042910     0.38900
C482        C  0.60254112  0.06451647  0.00414861     0.35800
C483        C  0.62095415  0.11443640  0.94227955     0.36500
C484        C  0.56551862  0.05446122  0.81239124     0.39800
N485        N  0.50209449  0.14715001  0.02401677    -0.38300
N486        N  0.53153755  0.13221344  0.89845524    -0.39900
N487        N  0.60092546  0.07759285  0.12440519    -0.37600
N488        N  0.61822125  0.04913441  0.00076315    -0.40000
N489        N  0.52544278  0.05426784  0.91236456    -0.39800
N490        N  0.55413823  0.04258769  0.78596224    -0.37400
N491        N  0.66419221  0.10765043  0.84786524    -0.38500
N492        N  0.63180294  0.12730894  0.96791357    -0.40100
C493        C  0.58968896  0.09987242  0.46820423    -0.05100
C494        C  0.56625300  0.11299737  0.47074980     0.09100
C495        C  0.55374409  0.11553233  0.51357352    -0.02400
C496        C  0.56510637  0.10584244  0.55393175    -0.00700
C497        C  0.58975430  0.09514400  0.55190423    -0.04300
C498        C  0.60173549  0.09155070  0.50886108     0.02700
C499        C  0.55544093  0.12492660  0.42829785     0.09500
C500        C  0.52980567  0.12920834  0.51640783     0.35400
C501        C  0.62647792  0.07933611  0.50645059     0.38900
C502        C  0.53419197  0.11400343  0.40648020    -0.04700
C503        C  0.52578348  0.12375418  0.36384204     0.02500
C504        C  0.53949667  0.14354716  0.34140428    -0.04300
C505        C  0.56032055  0.15496357  0.36419616    -0.00500
C506        C  0.56765466  0.14622955  0.40820630    -0.03100
C507        C  0.52170427  0.09197088  0.42691729     0.36200
C508        C  0.57597344  0.17378356  0.34078852     0.39800
C509        C  0.50329150  0.11289294  0.34277363     0.38900
C510        C  0.58852062  0.15848740  0.43219238     0.35800
C511        C  0.60158969  0.09541294  0.42372803     0.36500
C512        C  0.55203572  0.10821936  0.59786280     0.39800
N513        N  0.48532700  0.10401367  0.32642660    -0.38300
N514        N  0.51180811  0.07438891  0.44323392    -0.39900
N515        N  0.58892397  0.18842565  0.32219627    -0.37600
N516        N  0.60513562  0.16822839  0.45142891    -0.40000
N517        N  0.51075402  0.14018067  0.51869554    -0.39800
N518        N  0.54161235  0.11000867  0.63290848    -0.37400
N519        N  0.64620027  0.06960419  0.50443109    -0.38500
N520        N  0.61099616  0.09186636  0.38819068    -0.40100
C521        C  0.87570044  0.08458893  0.99446326    -0.05100
C522        C  0.88350056  0.09418217  0.03754095     0.09100
C523        C  0.90178631  0.11388093  0.03938947    -0.02400
C524        C  0.91108125  0.12497936  0.99832296    -0.00700
C525        C  0.90255188  0.11606679  0.95524714    -0.04300
C526        C  0.88520584  0.09548841  0.95336700     0.02700
C527        C  0.87159740  0.08438923  0.08098715     0.09500
C528        C  0.91074016  0.12303580  0.08358461     0.35400
C529        C  0.87595194  0.08645247  0.90923001     0.38900
C530        C  0.88025646  0.06148914  0.10119198    -0.04700
C531        C  0.87008510  0.05319968  0.14369920     0.02500
C532        C  0.85144758  0.06796870  0.16646075    -0.04300
C533        C  0.84167175  0.09005357  0.14485366    -0.00500
C534        C  0.85177820  0.09827286  0.10222696    -0.03100
C535        C  0.90010217  0.04683739  0.07872395     0.36200
C536        C  0.82214131  0.10504126  0.16759242     0.39800
C537        C  0.87849370  0.02924181  0.16365368     0.38900
C538        C  0.84232802  0.12143174  0.08075263     0.35800
C539        C  0.85724619  0.06404423  0.99254663     0.36500
C540        C  0.92893827  0.14601712  0.00040770     0.39800
N541        N  0.88504251  0.00990830  0.17893669    -0.38300
N542        N  0.91592443  0.03518579  0.06070587    -0.39900
N543        N  0.80654559  0.11691187  0.18580227    -0.37600
N544        N  0.83486211  0.13994700  0.06363412    -0.40000
N545        N  0.91813122  0.13045560  0.11860907    -0.39800
N546        N  0.94314204  0.16282572  0.00239453    -0.37400
N547        N  0.86836309  0.07913528  0.87424900    -0.38500
N548        N  0.84257031  0.04761537  0.99113102    -0.40100
C549        C  0.87089417  0.09393965  0.53861209    -0.05100
C550        C  0.89052717  0.11221775  0.53885596     0.09100
C551        C  0.89996611  0.12194469  0.49687519    -0.02400
C552        C  0.88930097  0.11404440  0.45463292    -0.00700
C553        C  0.86923979  0.09577990  0.45395788    -0.04300
C554        C  0.86043173  0.08557095  0.49656531     0.02700
C555        C  0.90024396  0.12216954  0.58374839     0.09500
C556        C  0.92024243  0.14072574  0.49737647     0.35400
C557        C  0.84054385  0.06645581  0.49793894     0.38900
C558        C  0.92337692  0.11308150  0.60222810    -0.04700
C559        C  0.93124791  0.12089152  0.64649365     0.02500
C560        C  0.91584548  0.13757188  0.67247320    -0.04300
C561        C  0.89317561  0.14736377  0.65327841    -0.00500
C562        C  0.88553304  0.13987172  0.60884509    -0.03100
C563        C  0.93860447  0.09507554  0.57624271     0.36200
C564        C  0.87751626  0.16490650  0.67961491     0.39800
C565        C  0.95446611  0.11074421  0.66629628     0.38900
C566        C  0.86224053  0.14995727  0.58914942     0.35800
C567        C  0.86105716  0.08410182  0.58205679     0.36500
C568        C  0.89833300  0.12598921  0.41236166     0.39800
N569        N  0.97296265  0.10262648  0.68216238    -0.38300
N570        N  0.95073736  0.08074032  0.55538617    -0.39900
N571        N  0.86502873  0.17884359  0.70068278    -0.37600
N572        N  0.84367010  0.15792537  0.57330701    -0.40000
N573        N  0.93647135  0.15564343  0.49784626    -0.39800
N574        N  0.90555072  0.13561192  0.37880949    -0.37400
N575        N  0.82455323  0.05133814  0.49996276    -0.38500
N576        N  0.85309238  0.07644077  0.61666887    -0.40100
C577        C  0.79042327  0.14731467  0.82477863    -0.05100
C578        C  0.78521939  0.12881059  0.79103951     0.09100
C579        C  0.80526520  0.11670397  0.76748554    -0.02400
C580        C  0.83060025  0.12318267  0.77736369    -0.00700
C581        C  0.83604546  0.14184555  0.81120668    -0.04300
C582        C  0.81580391  0.15362387  0.83534127     0.02700
C583        C  0.75855518  0.12199222  0.77948231     0.09500
C584        C  0.79972623  0.09749981  0.73290090     0.35400
C585        C  0.82097165  0.17104184  0.87291768     0.38900
C586        C  0.74556934  0.13595718  0.74538530    -0.04700
C587        C  0.72172405  0.12757445  0.72971730     0.02500
C588        C  0.71112213  0.10454869  0.74701464    -0.04300
C589        C  0.72368725  0.09135586  0.78320904    -0.00500
C590        C  0.74721329  0.10032694  0.79969370    -0.03100
C591        C  0.75719612  0.15859644  0.72550826     0.36200
C592        C  0.71335103  0.06783439  0.80202163     0.39800
C593        C  0.70820475  0.14289858  0.69589805     0.38900
C594        C  0.76021660  0.08693071  0.83667211     0.35800
C595        C  0.76955347  0.15959862  0.84878152     0.36500
C596        C  0.85081070  0.11049999  0.75214132     0.39800
N597        N  0.69755451  0.15526138  0.66900819    -0.38300
N598        N  0.76653401  0.17661283  0.70967475    -0.39900
N599        N  0.70518380  0.04906290  0.81712278    -0.37600
N600        N  0.77059252  0.07638625  0.86629679    -0.40000
N601        N  0.79534104  0.08216169  0.70543830    -0.39800
N602        N  0.86633940  0.09979030  0.73152952    -0.37400
N603        N  0.82496423  0.18482909  0.90312951    -0.38500
N604        N  0.75277475  0.16934498  0.86766580    -0.40100
C605        C  0.86215063  0.24911479  0.23654952    -0.05100
C606        C  0.87414267  0.23336394  0.26940026     0.09100
C607        C  0.89494234  0.24280395  0.29468329    -0.02400
C608        C  0.90446500  0.26755566  0.28588372    -0.00700
C609        C  0.89343385  0.28305829  0.25097283    -0.04300
C610        C  0.87164964  0.27381080  0.22727441     0.02700
C611        C  0.86534627  0.20643254  0.27646221     0.09500
C612        C  0.90679257  0.22669890  0.32934278     0.35400
C613        C  0.85950058  0.28897613  0.19156279     0.38900
C614        C  0.87604951  0.18663512  0.25013138    -0.04700
C615        C  0.86903717  0.16102343  0.25844302     0.02500
C616        C  0.85050018  0.15485414  0.29277820    -0.04300
C617        C  0.83839704  0.17531416  0.31645506    -0.00500
C618        C  0.84654991  0.20073555  0.30953793    -0.03100
C619        C  0.89480215  0.19263518  0.21487903     0.36200
C620        C  0.81698196  0.17072705  0.34701701     0.39800
C621        C  0.88146825  0.14130630  0.23151867     0.38900
C622        C  0.83609501  0.22113427  0.33746459     0.35800
C623        C  0.84034382  0.23954386  0.21136656     0.36500
C624        C  0.92546919  0.27698566  0.31332992     0.39800
N625        N  0.89136291  0.12550017  0.21028711    -0.38300
N626        N  0.90973635  0.19720280  0.18665061    -0.39900
N627        N  0.79969315  0.16723063  0.37101998    -0.37600
N628        N  0.82805655  0.23739814  0.36008039    -0.40000
N629        N  0.91612283  0.21371187  0.35687621    -0.39800
N630        N  0.94216265  0.28442361  0.33551032    -0.37400
N631        N  0.84975831  0.30106511  0.16317011    -0.38500
N632        N  0.82294790  0.23193235  0.19126032    -0.40100
C633        C  0.98502883  0.22938313  0.98298954    -0.05100
C634        C  0.97397638  0.25385320  0.98699708     0.09100
C635        C  0.95909031  0.26352781  0.95037843    -0.02400
C636        C  0.95321488  0.24788789  0.91240492    -0.00700
C637        C  0.96134382  0.22223347  0.91174174    -0.04300
C638        C  0.97840149  0.21343815  0.94572320     0.02700
C639        C  0.97395096  0.26737891  0.03249188     0.09500
C640        C  0.94818589  0.28889893  0.95328328     0.35400
C641        C  0.98853603  0.18777300  0.94281877     0.38900
C642        C  0.98773513  0.29023771  0.03913574    -0.04700
C643        C  0.98372717  0.30497717  0.07937546     0.02500
C644        C  0.96555658  0.29705977  0.11241843    -0.04300
C645        C  0.95431164  0.27270267  0.10824230    -0.00500
C646        C  0.95797527  0.25821584  0.06807886    -0.03100
C647        C  0.00494245  0.29916255  0.00347201     0.36200
C648        C  0.93862086  0.26261696  0.14528033     0.39800
C649        C  0.99744416  0.32868428  0.08576864     0.38900
C650        C  0.94377385  0.23469825  0.06207941     0.35800
C651        C  0.00213642  0.22024621  0.01852265     0.36500
C652        C  0.93753174  0.25781112  0.87537344     0.39800
N653        N  0.00855285  0.34750466  0.09103689    -0.38300
N654        N  0.01853446  0.30631757  0.97475194    -0.39900
N655        N  0.92631256  0.25433721  0.17487492    -0.37600
N656        N  0.93230612  0.21605597  0.05733750    -0.40000
N657        N  0.93936432  0.30908713  0.95529866    -0.39800
N658        N  0.92518997  0.26606086  0.84588731    -0.37400
N659        N  0.99661252  0.16728491  0.94033022    -0.38500
N660        N  0.01584598  0.21304292  0.04690557    -0.40100
C661        C  0.88853065  0.42819768  0.48077741    -0.05100
C662        C  0.91217582  0.41565149  0.48408543     0.09100
C663        C  0.92500459  0.41483075  0.52674255    -0.02400
C664        C  0.91364211  0.42553114  0.56642752    -0.00700
C665        C  0.88907728  0.43645986  0.56370237    -0.04300
C666        C  0.87671167  0.43791919  0.52053561     0.02700
C667        C  0.92289032  0.40271194  0.44250535     0.09500
C668        C  0.94939157  0.40205625  0.52998397     0.35400
C669        C  0.85111373  0.44807196  0.51708829     0.38900
C670        C  0.94064080  0.41549435  0.41444372    -0.04700
C671        C  0.94723353  0.40549696  0.37096937     0.02500
C672        C  0.93586419  0.38254515  0.35496059    -0.04300
C673        C  0.91967813  0.36869067  0.38517595    -0.00500
C674        C  0.91336088  0.37875019  0.42884851    -0.03100
C675        C  0.95144275  0.43947603  0.42984426     0.36200
C676        C  0.90744341  0.34537168  0.37007169     0.39800
C677        C  0.96528008  0.41947112  0.34257304     0.38900
C678        C  0.89623025  0.36492268  0.45926605     0.35800
C679        C  0.87597891  0.43077362  0.43648671     0.36500
C680        C  0.92633781  0.42336390  0.61065186     0.39800
N681        N  0.97948158  0.43105038  0.32027291    -0.38300
N682        N  0.96007961  0.45853216  0.44236161    -0.39900
N683        N  0.89732639  0.32695687  0.35807079    -0.37600
N684        N  0.88263503  0.35388732  0.48363271    -0.40000
N685        N  0.96883456  0.39179297  0.53240494    -0.39800
N686        N  0.93643280  0.42156645  0.64594008    -0.37400
N687        N  0.83049182  0.45549518  0.51346235    -0.38500
N688        N  0.86562699  0.43336672  0.40163061    -0.40100
C689        C  0.88682302  0.43231086  0.01899918    -0.05100
C690        C  0.89490745  0.42091332  0.97761496     0.09100
C691        C  0.91228948  0.40044165  0.97891058    -0.02400
C692        C  0.92077489  0.39065744  0.02161596    -0.00700
C693        C  0.91168842  0.40114273  0.06352880    -0.04300
C694        C  0.89514847  0.42258858  0.06178629     0.02700
C695        C  0.88417805  0.42981301  0.93265846     0.09500
C696        C  0.92109502  0.38916387  0.93609622     0.35400
C697        C  0.88540103  0.43408529  0.10375499     0.38900
C698        C  0.89370389  0.45205372  0.91114694    -0.04700
C699        C  0.88393455  0.45992589  0.86816042     0.02500
C700        C  0.86494479  0.44539260  0.84625323    -0.04300
C701        C  0.85489819  0.42356910  0.86831205    -0.00500
C702        C  0.86430918  0.41595138  0.91170171    -0.03100
C703        C  0.91398641  0.46643515  0.93271033     0.36200
C704        C  0.83534883  0.40862308  0.84570198     0.39800
C705        C  0.89415586  0.48235933  0.84540552     0.38900
C706        C  0.85376738  0.39370971  0.93471300     0.35800
C707        C  0.86916170  0.45357543  0.01740220     0.36500
C708        C  0.93911072  0.37001295  0.02215474     0.39800
N709        N  0.90220289  0.50023715  0.82701185    -0.38300
N710        N  0.93016901  0.47794410  0.94986820    -0.39900
N711        N  0.81986285  0.39667892  0.82743319    -0.37600
N712        N  0.84538623  0.37600875  0.95325963    -0.40000
N713        N  0.92803310  0.38013985  0.90195499    -0.39800
N714        N  0.95379507  0.35356714  0.02242207    -0.37400
N715        N  0.87751985  0.44333462  0.13701958    -0.38500
N716        N  0.85509787  0.47055019  0.01592433    -0.40100
C717        C  0.86223954  0.27217707  0.75560444    -0.05100
C718        C  0.87847413  0.28782937  0.72924265     0.09100
C719        C  0.90254968  0.27872329  0.71557456    -0.02400
C720        C  0.91117751  0.25471612  0.73113874    -0.00700
C721        C  0.89550600  0.23951484  0.76001923    -0.04300
C722        C  0.87060052  0.24801075  0.77062177     0.02700
C723        C  0.87138953  0.31492547  0.72006497     0.09500
C724        C  0.91871383  0.29454948  0.68666130     0.35400
C725        C  0.85334417  0.23195386  0.79674859     0.38900
C726        C  0.87887335  0.33383921  0.75161673    -0.04700
C727        C  0.87374047  0.35969270  0.74236588     0.02500
C728        C  0.85984094  0.36673470  0.70251389    -0.04300
C729        C  0.85235387  0.34770169  0.67089388    -0.00500
C730        C  0.85817106  0.32183875  0.67967309    -0.03100
C731        C  0.89203152  0.32664910  0.79373201     0.36200
C732        C  0.84035388  0.35491093  0.62777358     0.39800
C733        C  0.88367356  0.37874900  0.77363383     0.38900
C734        C  0.85097329  0.30230671  0.64694373     0.35800
C735        C  0.83713554  0.28132714  0.76828815     0.36500
C736        C  0.93680594  0.24658075  0.71978159     0.39800
N737        N  0.89261755  0.39296337  0.79935459    -0.38300
N738        N  0.90239002  0.32108628  0.82748717    -0.39900
N739        N  0.83108539  0.36074151  0.59312631    -0.37600
N740        N  0.84530424  0.28662809  0.62093184    -0.40000
N741        N  0.93147149  0.30722714  0.66343654    -0.39800
N742        N  0.95727235  0.24016884  0.71076533    -0.37400
N743        N  0.83917058  0.21944529  0.81735530    -0.38500
N744        N  0.81712785  0.28864446  0.77835848    -0.40100
C745        C  0.72043775  0.43499516  0.78655281    -0.05100
C746        C  0.70886965  0.41457841  0.76299113     0.09100
C747        C  0.72324097  0.39993772  0.73169360    -0.02400
C748        C  0.74887029  0.40608726  0.72297126    -0.00700
C749        C  0.76007603  0.42779874  0.74382725    -0.04300
C750        C  0.74585617  0.44180225  0.77674469     0.02700
C751        C  0.68159487  0.40804566  0.77172780     0.09500
C752        C  0.71144521  0.37869703  0.70785196     0.35400
C753        C  0.75669246  0.46405714  0.79890671     0.38900
C754        C  0.66199600  0.42324284  0.75300159    -0.04700
C755        C  0.63624804  0.41682963  0.76089937     0.02500
C756        C  0.62990610  0.39493400  0.78758122    -0.04300
C757        C  0.64988956  0.37936660  0.80505775    -0.00500
C758        C  0.67546534  0.38620460  0.79782134    -0.03100
C759        C  0.66844376  0.44571237  0.72596355     0.36200
C760        C  0.64450207  0.35582736  0.82984010     0.39800
C761        C  0.61655924  0.43333935  0.74242895     0.38900
C762        C  0.69565791  0.37081344  0.81771760     0.35800
C763        C  0.70596082  0.44921506  0.82048494     0.36500
C764        C  0.76371272  0.38967850  0.69294322     0.39800
N765        N  0.60097557  0.44658058  0.72748953    -0.38300
N766        N  0.67368097  0.46369956  0.70469933    -0.39900
N767        N  0.64031571  0.33706464  0.84962634    -0.37600
N768        N  0.71174830  0.35853696  0.83351520    -0.40000
N769        N  0.70199066  0.36175684  0.68900451    -0.39800
N770        N  0.77547164  0.37648928  0.66909565    -0.37400
N771        N  0.76526088  0.48188201  0.81644554    -0.38500
N772        N  0.69435635  0.46053446  0.84750246    -0.40100
C773        C  0.76463450  0.44235634  0.25700141    -0.05100
C774        C  0.77124565  0.41648503  0.25105451     0.09100
C775        C  0.75227001  0.39750873  0.25412083    -0.02400
C776        C  0.72677367  0.40437625  0.26271769    -0.00700
C777        C  0.72018797  0.43021243  0.26949347    -0.04300
C778        C  0.73921687  0.44920251  0.26668482     0.02700
C779        C  0.79815385  0.40919379  0.24046437     0.09500
C780        C  0.75914671  0.37084321  0.24947775     0.35400
C781        C  0.73290446  0.47562281  0.27606850     0.38900
C782        C  0.81613967  0.40670423  0.27618474    -0.04700
C783        C  0.84140892  0.39947673  0.26602742     0.02500
C784        C  0.84893634  0.39444291  0.21995649    -0.04300
C785        C  0.83058692  0.39681500  0.18424326    -0.00500
C786        C  0.80546002  0.40435361  0.19456713    -0.03100
C787        C  0.80842004  0.41105429  0.32359654     0.36200
C788        C  0.83727828  0.39167927  0.13656834     0.39800
C789        C  0.85924714  0.39599552  0.30349779     0.38900
C790        C  0.78691856  0.40713850  0.15785854     0.35800
C791        C  0.78415438  0.46184292  0.25388244     0.36500
C792        C  0.70724889  0.38482842  0.26415653     0.39800
N793        N  0.87358849  0.39309780  0.33321007    -0.38300
N794        N  0.80225167  0.41446214  0.36142104    -0.39900
N795        N  0.84237605  0.38740601  0.09851037    -0.37600
N796        N  0.77206119  0.40937825  0.12873648    -0.40000
N797        N  0.76466873  0.34956119  0.24605479    -0.39800
N798        N  0.69176344  0.36914741  0.26485017    -0.37400
N799        N  0.72792757  0.49668338  0.28384425    -0.38500
N800        N  0.79981892  0.47729776  0.25143470    -0.40100
C801        C  0.73824934  0.49756790  0.57758229    -0.05100
C802        C  0.74659526  0.50068397  0.53162574     0.09100
C803        C  0.77265222  0.50495541  0.52281151    -0.02400
C804        C  0.79049881  0.50262285  0.55891938    -0.00700
C805        C  0.78251069  0.49467448  0.60322145    -0.04300
C806        C  0.75614751  0.49445076  0.61342698     0.02700
C807        C  0.72897257  0.49410765  0.49284425     0.09500
C808        C  0.78119288  0.51008217  0.47615517     0.35400
C809        C  0.74722583  0.48945515  0.65991774     0.38900
C810        C  0.71603167  0.51302394  0.46722037    -0.04700
C811        C  0.69855633  0.50593334  0.43231754     0.02500
C812        C  0.69443985  0.47987052  0.42228915    -0.04300
C813        C  0.70855432  0.46109494  0.44656673    -0.00500
C814        C  0.72518856  0.46815393  0.48224079    -0.03100
C815        C  0.72067102  0.53969013  0.47705376     0.36200
C816        C  0.70680712  0.43436175  0.43384340     0.39800
C817        C  0.68429081  0.52535379  0.40785969     0.38900
C818        C  0.73844454  0.44856792  0.50842529     0.35800
C819        C  0.71122473  0.49572568  0.58729200     0.36500
C820        C  0.81711925  0.50829969  0.55075931     0.39800
N821        N  0.67282676  0.54086300  0.38842213    -0.38300
N822        N  0.72459321  0.56096378  0.48482817    -0.39900
N823        N  0.70562681  0.41306424  0.42368024    -0.37600
N824        N  0.74889326  0.43301901  0.52957984    -0.40000
N825        N  0.78798416  0.51417216  0.43885241    -0.39800
N826        N  0.83834910  0.51305824  0.54460515    -0.37400
N827        N  0.73977581  0.48577389  0.69693578    -0.38500
N828        N  0.68966675  0.49432593  0.59498029    -0.40100
C829        C  0.58450783  0.27005893  0.28612418    -0.05100
C830        C  0.60303316  0.28225853  0.25859557     0.09100
C831        C  0.61175005  0.27038520  0.21800213    -0.02400
C832        C  0.60090003  0.24714891  0.20340155    -0.00700
C833        C  0.58174129  0.23514213  0.23022233    -0.04300
C834        C  0.57370151  0.24675113  0.27188026     0.02700
C835        C  0.61049922  0.30920952  0.26887161     0.09500
C836        C  0.63120308  0.28275414  0.19028636     0.35400
C837        C  0.55368209  0.23529104  0.29959880     0.38900
C838        C  0.62932659  0.31472188  0.30190131    -0.04700
C839        C  0.63449775  0.34029170  0.31407457     0.02500
C840        C  0.62119408  0.36058334  0.29241391    -0.04300
C841        C  0.60306850  0.35488824  0.25783808    -0.00500
C842        C  0.59769059  0.32934692  0.24641266    -0.03100
C843        C  0.64329509  0.29400168  0.32334663     0.36200
C844        C  0.59008806  0.37519316  0.23315964     0.39800
C845        C  0.65263269  0.34551820  0.35048213     0.38900
C846        C  0.57875363  0.32366039  0.21153254     0.35800
C847        C  0.57596579  0.28202007  0.32847898     0.36500
C848        C  0.60757166  0.23724858  0.15833253     0.39800
N849        N  0.66704644  0.34969321  0.37960980    -0.38300
N850        N  0.65453632  0.27745078  0.34022413    -0.39900
N851        N  0.57952541  0.39109937  0.21309443    -0.37600
N852        N  0.56375354  0.31899989  0.18365579    -0.40000
N853        N  0.64673695  0.29267133  0.16829403    -0.39800
N854        N  0.61269983  0.22977725  0.12196916    -0.37400
N855        N  0.53760746  0.22638839  0.32174630    -0.38500
N856        N  0.56924929  0.29153975  0.36233081    -0.40100
C857        C  0.60029171  0.44202123  0.98481915    -0.05100
C858        C  0.58860913  0.43501359  0.02679245     0.09100
C859        C  0.56609542  0.42035061  0.02626054    -0.02400
C860        C  0.55603111  0.41166134  0.98412429    -0.00700
C861        C  0.56919476  0.41631621  0.94240400    -0.04300
C862        C  0.59077893  0.43256359  0.94268009     0.02700
C863        C  0.60033450  0.44212604  0.07195541     0.09500
C864        C  0.55379740  0.41342404  0.06937120     0.35400
C865        C  0.60399698  0.43875833  0.90007977     0.38900
C866        C  0.59079620  0.46299198  0.09721347    -0.04700
C867        C  0.59921763  0.46733980  0.14271065     0.02500
C868        C  0.61689161  0.45054720  0.16338774    -0.04300
C869        C  0.62718953  0.43028732  0.13740320    -0.00500
C870        C  0.61935429  0.42644768  0.09144421    -0.03100
C871        C  0.57160658  0.47937891  0.07682482     0.36200
C872        C  0.64521918  0.41287779  0.15857787     0.39800
C873        C  0.58837350  0.48806148  0.16918961     0.38900
C874        C  0.63038258  0.40598504  0.06446489     0.35800
C875        C  0.62252758  0.45838856  0.98525651     0.36500
C876        C  0.53180862  0.39842041  0.98354186     0.39800
N877        N  0.57950668  0.50459364  0.19006734    -0.38300
N878        N  0.55624134  0.49235226  0.06047306    -0.39900
N879        N  0.65944081  0.39893351  0.17571919    -0.37600
N880        N  0.63934170  0.38983657  0.04270264    -0.40000
N881        N  0.54414332  0.40782712  0.10385296    -0.39800
N882        N  0.51236541  0.38806415  0.98297755    -0.37400
N883        N  0.61455125  0.44388505  0.86622520    -0.38500
N884        N  0.64023684  0.47150370  0.98559694    -0.40100
C885        C  0.59038412  0.41851565  0.52780085    -0.05100
C886        C  0.56562726  0.40817538  0.52634423     0.09100
C887        C  0.55193883  0.40841767  0.48450266    -0.02400
C888        C  0.56355073  0.41756927  0.44369701    -0.00700
C889        C  0.58903902  0.42615612  0.44454880    -0.04300
C890        C  0.60205073  0.42746610  0.48711675     0.02700
C891        C  0.55430068  0.39711635  0.56936820     0.09500
C892        C  0.52617863  0.39856968  0.48327880     0.35400
C893        C  0.62739286  0.43832634  0.48955941     0.38900
C894        C  0.53620443  0.41110421  0.59459874    -0.04700
C895        C  0.52878407  0.40282773  0.63891135     0.02500
C896        C  0.53996415  0.38075798  0.65901625    -0.04300
C897        C  0.55638214  0.36556977  0.63180434    -0.00500
C898        C  0.56353772  0.37378734  0.58718581    -0.03100
C899        C  0.52623290  0.43481658  0.57592080     0.36200
C900        C  0.56715021  0.34222983  0.65025350     0.39800
C901        C  0.50996911  0.41758868  0.66389988     0.38900
C902        C  0.58151001  0.35892765  0.56036064     0.35800
C903        C  0.60403976  0.41954789  0.57127368     0.36500
C904        C  0.54963954  0.41703475  0.40056061     0.39800
N905        N  0.49503545  0.42977063  0.68318129    -0.38300
N906        N  0.51827256  0.45369297  0.56098156    -0.39900
N907        N  0.57566800  0.32345088  0.66449778    -0.37600
N908        N  0.59597548  0.34721982  0.53901293    -0.40000
N909        N  0.50557885  0.39081899  0.48244918    -0.39800
N910        N  0.53851196  0.41671638  0.36616634    -0.37400
N911        N  0.64751040  0.44706317  0.49289684    -0.38500
N912        N  0.61493979  0.42023555  0.60589052    -0.40100
C913        C  0.01997429  0.07847918  0.81355070    -0.05100
C914        C  0.03520130  0.08406712  0.77462611     0.09100
C915        C  0.03251301  0.10780685  0.75204861    -0.02400
C916        C  0.01337301  0.12502012  0.76602604    -0.00700
C917        C  0.99649630  0.11830439  0.80211474    -0.04300
C918        C  0.00053781  0.09546361  0.82704504     0.02700
C919        C  0.05295853  0.06428720  0.75576128     0.09500
C920        C  0.04872616  0.11396367  0.71304390     0.35400
C921        C  0.98442915  0.08933279  0.86626684     0.38900
C922        C  0.04358291  0.04491360  0.72681244    -0.04700
C923        C  0.05980563  0.02524226  0.71108616     0.02500
C924        C  0.08574025  0.02448289  0.72491556    -0.04300
C925        C  0.09550504  0.04579417  0.74991804    -0.00500
C926        C  0.07905421  0.06515069  0.76596539    -0.03100
C927        C  0.01700291  0.04523974  0.71340791     0.36200
C928        C  0.12251862  0.04848505  0.75896558     0.39800
C929        C  0.04954065  0.00623170  0.68003955     0.38900
C930        C  0.08890703  0.08594007  0.79364833     0.35800
C931        C  0.02392472  0.05494129  0.83898527     0.36500
C932        C  0.00995213  0.14881739  0.74108394     0.39800
N933        N  0.04125832  0.99128106  0.65492129    -0.38300
N934        N  0.99580599  0.04559116  0.70276398    -0.39900
N935        N  0.14404049  0.05085670  0.76611485    -0.37600
N936        N  0.09673127  0.10255601  0.81563286    -0.40000
N937        N  0.06170288  0.11881990  0.68194780    -0.39800
N938        N  0.00721378  0.16782190  0.72125464    -0.37400
N939        N  0.97161466  0.08451523  0.89761675    -0.38500
N940        N  0.02705989  0.03622220  0.85949228    -0.40100
C941        C  0.43139661  0.11219750  0.27226904    -0.05100
C942        C  0.42762976  0.08762418  0.25442514     0.09100
C943        C  0.44017209  0.08025086  0.21360950    -0.02400
C944        C  0.45857779  0.09639759  0.19333280    -0.00700
C945        C  0.46456520  0.12019161  0.21400334    -0.04300
C946        C  0.44916491  0.12876034  0.25152936     0.02700
C947        C  0.41086312  0.06919409  0.27935877     0.09500
C948        C  0.43450023  0.05564368  0.19323854     0.35400
C949        C  0.45202471  0.15408495  0.27103871     0.38900
C950        C  0.38425707  0.07124161  0.27587895    -0.04700
C951        C  0.36854966  0.05269709  0.29660664     0.02500
C952        C  0.37944907  0.03121159  0.31911845    -0.04300
C953        C  0.40610052  0.03081861  0.32674903    -0.00500
C954        C  0.42170126  0.04968915  0.30657600    -0.03100
C955        C  0.37311848  0.09191614  0.24928926     0.36200
C956        C  0.41789968  0.01061700  0.35357370     0.39800
C957        C  0.34113485  0.05575598  0.29419910     0.38900
C958        C  0.44909444  0.04844678  0.31228107     0.35800
C959        C  0.41791563  0.11991615  0.31372825     0.36500
C960        C  0.47130612  0.08817626  0.15149171     0.39800
N961        N  0.31929317  0.05826326  0.29223297    -0.38300
N962        N  0.36433369  0.10842250  0.22801972    -0.39900
N963        N  0.42740981  0.99462071  0.37510397    -0.37600
N964        N  0.47092067  0.04718092  0.31678652    -0.40000
N965        N  0.42988160  0.03601833  0.17714864    -0.39800
N966        N  0.48139380  0.08150037  0.11811938    -0.37400
N967        N  0.45422441  0.17418902  0.28690820    -0.38500
N968        N  0.40723473  0.12602364  0.34683792    -0.40100
C969        C  0.23054284  0.01180636  0.43737233    -0.05100
C970        C  0.23559540  0.00828786  0.48487887     0.09100
C971        C  0.26077598  0.00326001  0.49931323    -0.02400
C972        C  0.27997972  0.99887282  0.46633835    -0.00700
C973        C  0.27396414  0.99864887  0.41900197    -0.04300
C974        C  0.24966430  0.00665681  0.40439428     0.02700
C975        C  0.21418988  0.00389424  0.51827819     0.09500
C976        C  0.26645073  0.00011801  0.54797085     0.35400
C977        C  0.24380646  0.00751034  0.35555391     0.38900
C978        C  0.20061369  0.98075726  0.51574620    -0.04700
C979        C  0.18429241  0.97335987  0.55186490     0.02500
C980        C  0.18199341  0.98858541  0.59222653    -0.04300
C981        C  0.19413589  0.01272183  0.59307235    -0.00500
C982        C  0.20983722  0.02047881  0.55575585    -0.03100
C983        C  0.20469249  0.96358238  0.47711979     0.36200
C984        C  0.19228598  0.02872193  0.63358527     0.39800
C985        C  0.17091184  0.94921575  0.54758121     0.38900
C986        C  0.22245527  0.04505828  0.55663591     0.35800
C987        C  0.20503490  0.01826684  0.42244008     0.36500
C988        C  0.30571216  0.99333786  0.48122078     0.39800
N989        N  0.16084885  0.92974155  0.54318876    -0.38300
N990        N  0.20790792  0.94992525  0.44636140    -0.39900
N991        N  0.19098447  0.04147669  0.66601339    -0.37600
N992        N  0.23253010  0.06468113  0.55716283    -0.40000
N993        N  0.27095128  0.99753382  0.58677659    -0.39800
N994        N  0.32621896  0.98923233  0.49356064    -0.37400
N995        N  0.23921289  0.00812972  0.31653402    -0.38500
N996        N  0.18462594  0.02319738  0.41050509    -0.40100
C997        C  0.92576788  0.54818739  0.73469067    -0.05100
C998        C  0.91678510  0.56351458  0.77123146     0.09100
C999        C  0.89105355  0.56177897  0.78483067    -0.02400
C1000       C  0.87474623  0.54384435  0.76371295    -0.00700
C1001       C  0.88430131  0.52709957  0.72953896    -0.04300
C1002       C  0.90956685  0.53023736  0.71371522     0.02700
C1003       C  0.93479457  0.58115447  0.79540898     0.09500
C1004       C  0.88179024  0.57745404  0.82239451     0.35400
C1005       C  0.91901173  0.51471948  0.67601807     0.38900
C1006       C  0.93477509  0.60749181  0.78510648    -0.04700
C1007       C  0.95463893  0.62327193  0.80110634     0.02500
C1008       C  0.97475634  0.61270370  0.82736306    -0.04300
C1009       C  0.97340082  0.58683041  0.84121861    -0.00500
C1010       C  0.95348072  0.57115256  0.82537414    -0.03100
C1011       C  0.91507308  0.61806550  0.75578758     0.36200
C1012       C  0.99298539  0.57606750  0.87070126     0.39800
C1013       C  0.95548456  0.64981612  0.78679844     0.38900
C1014       C  0.95289491  0.54441212  0.83838242     0.35800
C1015       C  0.95208975  0.55014149  0.71991139     0.36500
C1016       C  0.84865123  0.54155684  0.77953516     0.39800
N1017       N  0.95626818  0.67096368  0.77526007    -0.38300
N1018       N  0.89929371  0.62652318  0.73254317    -0.39900
N1019       N  0.00862083  0.56742517  0.89406556    -0.37600
N1020       N  0.95284482  0.52311646  0.84903446    -0.40000
N1021       N  0.87447078  0.58993240  0.85247242    -0.39800
N1022       N  0.82781265  0.53983100  0.79208803    -0.37400
N1023       N  0.92650202  0.50239239  0.64586641    -0.38500
N1024       N  0.97314366  0.55145483  0.70845205    -0.40100
C1025       C  0.10391716  0.77003238  0.77634758    -0.05100
C1026       C  0.08555179  0.78861576  0.76522018     0.09100
C1027       C  0.05958395  0.78193694  0.76380215    -0.02400
C1028       C  0.05189378  0.75687716  0.77509746    -0.00700
C1029       C  0.07025481  0.73835814  0.78742824    -0.04300
C1030       C  0.09634237  0.74491734  0.78692295     0.02700
C1031       C  0.09372163  0.81529217  0.75475022     0.09500
C1032       C  0.04082308  0.80109941  0.75165783     0.35400
C1033       C  0.11553567  0.72577572  0.79671376     0.38900
C1034       C  0.10230414  0.82165106  0.71021748    -0.04700
C1035       C  0.11058706  0.84664214  0.70021909     0.02500
C1036       C  0.10963895  0.86595230  0.73474588    -0.04300
C1037       C  0.10156127  0.85903174  0.77987468    -0.00500
C1038       C  0.09360353  0.83387605  0.78964348    -0.03100
C1039       C  0.10224403  0.80236342  0.67440727     0.36200
C1040       C  0.10209555  0.87735048  0.81704238     0.39800
C1041       C  0.11953566  0.85209083  0.65374441     0.38900
C1042       C  0.08528197  0.82699268  0.83584409     0.35800
C1043       C  0.13061558  0.77699184  0.77786926     0.36500
C1044       C  0.02503502  0.75058593  0.77626404     0.39800
N1045       N  0.12669276  0.85625481  0.61669904    -0.38300
N1046       N  0.10211336  0.78698187  0.64586496    -0.39900
N1047       N  0.10242841  0.89182650  0.84701285    -0.37600
N1048       N  0.07862292  0.82151632  0.87263333    -0.40000
N1049       N  0.02598024  0.81651170  0.74199542    -0.39800
N1050       N  0.00358496  0.74565294  0.77725014    -0.37400
N1051       N  0.13111407  0.71071926  0.80408349    -0.38500
N1052       N  0.15187767  0.78263625  0.77921038    -0.40100
C1053       C  0.96580674  0.94841593  0.28613479    -0.05100
C1054       C  0.94076141  0.94555589  0.26970913     0.09100
C1055       C  0.93505966  0.92615310  0.23762392    -0.02400
C1056       C  0.95438772  0.90946504  0.22268277    -0.00700
C1057       C  0.97969358  0.91366482  0.23660893    -0.04300
C1058       C  0.98545383  0.93367935  0.26735667     0.02700
C1059       C  0.92146710  0.96515230  0.28202542     0.09500
C1060       C  0.90957855  0.92386963  0.21906050     0.35400
C1061       C  0.01155793  0.93935460  0.27994211     0.38900
C1062       C  0.92530530  0.99052601  0.26712641    -0.04700
C1063       C  0.90856200  0.00974859  0.28126045     0.02500
C1064       C  0.88617880  0.00326173  0.30562428    -0.04300
C1065       C  0.88172125  0.97778488  0.31908932    -0.00500
C1066       C  0.90005811  0.95893560  0.30935261    -0.03100
C1067       C  0.94626477  0.99679253  0.23630969     0.36200
C1068       C  0.85836396  0.97103011  0.34283084     0.39800
C1069       C  0.91407842  0.03609205  0.26907696     0.38900
C1070       C  0.89715536  0.93337675  0.32791350     0.35800
C1071       C  0.97139169  0.96683862  0.32205885     0.36500
C1072       C  0.94843268  0.88846057  0.19214218     0.39800
N1073       N  0.91884199  0.05700703  0.25943394    -0.38300
N1074       N  0.96293549  0.00169720  0.21171450    -0.39900
N1075       N  0.83960698  0.96554435  0.36129580    -0.37600
N1076       N  0.89494929  0.91302024  0.34300749    -0.40000
N1077       N  0.88923402  0.92215493  0.20423614    -0.39800
N1078       N  0.94366395  0.87162909  0.16793920    -0.37400
N1079       N  0.03220141  0.94455286  0.29002768    -0.38500
N1080       N  0.97584368  0.98147394  0.35071205    -0.40100
C1081       C  0.22445551  0.92071185  0.22250988    -0.05100
C1082       C  0.20934712  0.90609207  0.25287453     0.09100
C1083       C  0.21854939  0.89934659  0.29682208    -0.02400
C1084       C  0.24249115  0.90807347  0.31128197    -0.00700
C1085       C  0.25737107  0.92355397  0.28157474    -0.04300
C1086       C  0.24853512  0.92936278  0.23675730     0.02700
C1087       C  0.18274118  0.89958777  0.24050445     0.09500
C1088       C  0.20279993  0.88427527  0.32782173     0.35400
C1089       C  0.26426731  0.94399880  0.20515212     0.38900
C1090       C  0.17713496  0.87619099  0.21923466    -0.04700
C1091       C  0.15167699  0.86943149  0.21044742     0.02500
C1092       C  0.13164792  0.88612376  0.22320391    -0.04300
C1093       C  0.13757321  0.90966713  0.24481125    -0.00500
C1094       C  0.16303619  0.91632558  0.25312750    -0.03100
C1095       C  0.19764666  0.85887098  0.20741225     0.36200
C1096       C  0.11771485  0.92747450  0.25806063     0.39800
C1097       C  0.14631198  0.84479851  0.19004005     0.38900
C1098       C  0.16909141  0.94035938  0.27536490     0.35800
C1099       C  0.21483561  0.92739624  0.17719030     0.36500
C1100       C  0.25101632  0.90231940  0.35777974     0.39800
N1101       N  0.14228233  0.82510216  0.17374066    -0.38300
N1102       N  0.21404385  0.84506466  0.19817187    -0.39900
N1103       N  0.10194849  0.94171534  0.26868936    -0.37600
N1104       N  0.17400572  0.95946335  0.29312474    -0.40000
N1105       N  0.19011697  0.87232692  0.35239965    -0.39800
N1106       N  0.25776730  0.89774160  0.39487738    -0.37400
N1107       N  0.27678710  0.95557197  0.17973672    -0.38500
N1108       N  0.20707789  0.93274963  0.14109497    -0.40100
C1109       C  0.99942184  0.76028108  0.09290899    -0.05100
C1110       C  0.99312202  0.76898133  0.04832916     0.09100
C1111       C  0.98648273  0.79482428  0.04161977    -0.02400
C1112       C  0.99004901  0.81247970  0.07777183    -0.00700
C1113       C  0.00154519  0.80437483  0.11915969    -0.04300
C1114       C  0.00410767  0.77801066  0.12813984     0.02700
C1115       C  0.00037181  0.75265696  0.00831979     0.09500
C1116       C  0.97789712  0.80340674  0.99674781     0.35400
C1117       C  0.01285163  0.76909605  0.17277560     0.38900
C1118       C  0.98262457  0.73674263  0.98609756    -0.04700
C1119       C  0.99104394  0.71868160  0.95325574     0.02500
C1120       C  0.01726166  0.71642827  0.94306677    -0.04300
C1121       C  0.03477172  0.73332877  0.96383353    -0.00500
C1122       C  0.02632772  0.75141081  0.99605072    -0.03100
C1123       C  0.95586717  0.73884505  0.99744613     0.36200
C1124       C  0.06156467  0.73254065  0.95155890     0.39800
C1125       C  0.97292598  0.70184674  0.93123950     0.38900
C1126       C  0.04447217  0.76863164  0.01736453     0.35800
C1127       C  0.00360258  0.73326575  0.10106048     0.36500
C1128       C  0.98276986  0.83894742  0.07211284     0.39800
N1129       N  0.95850748  0.68836956  0.91359769    -0.38300
N1130       N  0.93448215  0.74068332  0.00633574    -0.39900
N1131       N  0.08293851  0.73203811  0.94198513    -0.37600
N1132       N  0.05878819  0.78241786  0.03449898    -0.40000
N1133       N  0.97101329  0.81019175  0.96084346    -0.39800
N1134       N  0.97651238  0.85999738  0.06797925    -0.37400
N1135       N  0.01957691  0.76140320  0.20817842    -0.38500
N1136       N  0.00692829  0.71172675  0.10752409    -0.40100
C1137       C  0.03600615  0.89692572  0.43386556    -0.05100
C1138       C  0.06027872  0.89147113  0.45201453     0.09100
C1139       C  0.07750991  0.87649240  0.42633098    -0.02400
C1140       C  0.07127992  0.86875356  0.38118784    -0.00700
C1141       C  0.04768011  0.87576968  0.36181937    -0.04300
C1142       C  0.02963705  0.88890389  0.38895479     0.02700
C1143       C  0.06848659  0.90301895  0.49667612     0.09500
C1144       C  0.10193675  0.86970858  0.44601143     0.35400
C1145       C  0.00440062  0.89381896  0.37091827     0.38900
C1146       C  0.06468362  0.88993126  0.53865440    -0.04700
C1147       C  0.07349903  0.90054348  0.58032968     0.02500
C1148       C  0.08793326  0.92338780  0.57973622    -0.04300
C1149       C  0.09082702  0.93693656  0.53783146    -0.00500
C1150       C  0.08064975  0.92702653  0.49663254    -0.03100
C1151       C  0.05248778  0.86510362  0.53869205     0.36200
C1152       C  0.10384492  0.96134350  0.53723872     0.39800
C1153       C  0.06790847  0.88765253  0.62352440     0.38900
C1154       C  0.08287043  0.94135001  0.45391199     0.35800
C1155       C  0.01788629  0.91134592  0.46107135     0.36500
C1156       C  0.08959855  0.85463525  0.35382812     0.39800
N1157       N  0.06286778  0.87749349  0.65786909    -0.38300
N1158       N  0.04301931  0.84517862  0.53875272    -0.39900
N1159       N  0.11419391  0.98082333  0.53676079    -0.37600
N1160       N  0.08438514  0.95275436  0.41974809    -0.40000
N1161       N  0.12136827  0.86425435  0.46190941    -0.39800
N1162       N  0.10413908  0.84339392  0.33182257    -0.37400
N1163       N  0.98408971  0.89745004  0.35708277    -0.38500
N1164       N  0.00346757  0.92286055  0.48286607    -0.40100
C1165       C  0.12706315  0.92661934  0.92732730    -0.05100
C1166       C  0.10573228  0.93823388  0.94822314     0.09100
C1167       C  0.09454780  0.95978361  0.92736787    -0.02400
C1168       C  0.10317599  0.96835524  0.88394277    -0.00700
C1169       C  0.12305581  0.95536034  0.86089831    -0.04300
C1170       C  0.13587762  0.93528444  0.88385937     0.02700
C1171       C  0.09435804  0.92732097  0.99144460     0.09500
C1172       C  0.07350748  0.97254840  0.95003706     0.35400
C1173       C  0.15647090  0.92187565  0.86102049     0.38900
C1174       C  0.10258260  0.93585033  0.03482980    -0.04700
C1175       C  0.09201744  0.92549162  0.07565917     0.02500
C1176       C  0.07282392  0.90631756  0.07355815    -0.04300
C1177       C  0.06406649  0.89856789  0.02945699    -0.00500
C1178       C  0.07471229  0.90909317  0.98884379    -0.03100
C1179       C  0.12202483  0.95546537  0.03726587     0.36200
C1180       C  0.04396887  0.87981465  0.02509467     0.39800
C1181       C  0.10191197  0.93426731  0.11944364     0.38900
C1182       C  0.06511926  0.90134219  0.94414053     0.35800
C1183       C  0.13897589  0.90481348  0.94937844     0.36500
C1184       C  0.09117772  0.99029404  0.86240983     0.39800
N1185       N  0.11005024  0.94166795  0.15392624    -0.38300
N1186       N  0.13743790  0.97118612  0.03905274    -0.39900
N1187       N  0.02813290  0.86472577  0.02059635    -0.37600
N1188       N  0.05703850  0.89511484  0.90884322    -0.40000
N1189       N  0.05673494  0.98263570  0.96833047    -0.39800
N1190       N  0.08162658  0.00777966  0.84519481    -0.37400
N1191       N  0.17276926  0.91097429  0.84283217    -0.38500
N1192       N  0.14841621  0.88734533  0.96686665    -0.40100
C1193       C  0.04884534  0.48195990  0.28175327    -0.05100
C1194       C  0.06103710  0.45964131  0.26614125     0.09100
C1195       C  0.08749074  0.45690077  0.27207130    -0.02400
C1196       C  0.10170198  0.47627826  0.29382210    -0.00700
C1197       C  0.08976455  0.49930525  0.30797071    -0.04300
C1198       C  0.06304545  0.50183949  0.30190791     0.02700
C1199       C  0.04535628  0.43808846  0.24773865     0.09500
C1200       C  0.10010811  0.43411980  0.25531727     0.35400
C1201       C  0.04994472  0.52520799  0.31433288     0.38900
C1202       C  0.03432407  0.43945393  0.20346038    -0.04700
C1203       C  0.01580598  0.42138143  0.19001863     0.02500
C1204       C  0.00770776  0.40215177  0.22133574    -0.04300
C1205       C  0.02114361  0.39927013  0.26373045    -0.00500
C1206       C  0.03964947  0.41728676  0.27677263    -0.03100
C1207       C  0.04145406  0.46001217  0.17238547     0.36200
C1208       C  0.01513837  0.37889990  0.29606979     0.39800
C1209       C  0.00530247  0.42254281  0.14383611     0.38900
C1210       C  0.05183214  0.41531303  0.32158850     0.35800
C1211       C  0.02146238  0.48444479  0.27695870     0.36500
C1212       C  0.12868027  0.47226247  0.30158967     0.39800
N1213       N  0.99703935  0.42332673  0.10687361    -0.38300
N1214       N  0.04707134  0.47646008  0.14764388    -0.39900
N1215       N  0.01049816  0.36280820  0.32220934    -0.37600
N1216       N  0.06165919  0.41383178  0.35718604    -0.44800
N1217       N  0.11016894  0.41596052  0.24189297    -0.39800
N1218       N  0.15019049  0.46905439  0.30768542    -0.37400
N1219       N  0.03936633  0.54380101  0.32405624    -0.38500
N1220       N  0.99965219  0.48636992  0.27301987    -0.40100
C1221       C  0.06368410  0.62538380  0.51459132    -0.05100
C1222       C  0.06439554  0.60848391  0.55253668     0.09100
C1223       C  0.07313513  0.58325297  0.54629826    -0.02400
C1224       C  0.08233343  0.57542037  0.50281230    -0.00700
C1225       C  0.08371268  0.59302553  0.46594145    -0.04300
C1226       C  0.07334001  0.61772616  0.47140873     0.02700
C1227       C  0.05822547  0.61813315  0.59976647     0.09500
C1228       C  0.07396403  0.56584315  0.58523859     0.35400
C1229       C  0.07383681  0.63587985  0.43355047     0.38900
C1230       C  0.03442983  0.61297863  0.62045766    -0.04700
C1231       C  0.02911013  0.62192069  0.66537582     0.02500
C1232       C  0.04759549  0.63604790  0.68962243    -0.04300
C1233       C  0.07077390  0.64244438  0.66775946    -0.00500
C1234       C  0.07632661  0.63299584  0.62349724    -0.03100
C1235       C  0.01577961  0.59783021  0.59601755     0.36200
C1236       C  0.08886588  0.65896507  0.69085084     0.39800
C1237       C  0.00500885  0.61585349  0.68716890     0.38900
C1238       C  0.10109054  0.63772615  0.60298059     0.35800
C1239       C  0.05427452  0.65118167  0.52080510     0.36500
C1240       C  0.09045499  0.54926707  0.49585260     0.39800
N1241       N  0.98570301  0.61111340  0.70439443    -0.38300
N1242       N  0.00096154  0.58560223  0.57661088    -0.39900
N1243       N  0.10316586  0.67227203  0.70920746    -0.37600
N1244       N  0.12088643  0.64127698  0.58665610    -0.40000
N1245       N  0.07474860  0.55201885  0.61643113    -0.39800
N1246       N  0.09688518  0.52840608  0.49010019    -0.37400
N1247       N  0.07396704  0.65068749  0.40384605    -0.38500
N1248       N  0.04693012  0.67178209  0.52598385    -0.40100
C1249       C  0.07153270  0.60066084  0.05039262    -0.05100
C1250       C  0.09549300  0.58846612  0.05052627     0.09100
C1251       C  0.10856094  0.58465506  0.00866286    -0.02400
C1252       C  0.09843486  0.59432958  0.96715252    -0.00700
C1253       C  0.07540590  0.60828238  0.96753656    -0.04300
C1254       C  0.06172972  0.61100335  0.00908356     0.02700
C1255       C  0.10747538  0.58088976  0.09522640     0.09500
C1256       C  0.13274006  0.57132456  0.00860797     0.35400
C1257       C  0.03830775  0.62561072  0.00966912     0.38900
C1258       C  0.10235950  0.55678303  0.11475144    -0.04700
C1259       C  0.11110823  0.55092364  0.15946872     0.02500
C1260       C  0.12522867  0.56908454  0.18469698    -0.04300
C1261       C  0.13194839  0.59249140  0.16375516    -0.00500
C1262       C  0.12295126  0.59843328  0.11915523    -0.03100
C1263       C  0.08736402  0.53837599  0.08932762     0.36200
C1264       C  0.14662412  0.61113364  0.18929133     0.39800
C1265       C  0.10515543  0.52631785  0.17983223     0.38900
C1266       C  0.12862627  0.62305798  0.09858416     0.35800
C1267       C  0.05727280  0.60295298  0.09303890     0.36500
C1268       C  0.11209948  0.59036714  0.92423809     0.39800
N1269       N  0.10035087  0.50658913  0.19559506    -0.38300
N1270       N  0.07541297  0.52370267  0.06898626    -0.39900
N1271       N  0.15831484  0.62595696  0.20978894    -0.37600
N1272       N  0.13305108  0.64270884  0.08210533    -0.40000
N1273       N  0.15203047  0.56069598  0.00859641    -0.39800
N1274       N  0.12321610  0.58681649  0.89036927    -0.37400
N1275       N  0.01971955  0.63743109  0.01005048    -0.38500
N1276       N  0.04587483  0.60451563  0.12709910    -0.40100
C1277       C  0.09912456  0.74244270  0.23170910    -0.05100
C1278       C  0.09019078  0.73209126  0.27358625     0.09100
C1279       C  0.07452409  0.74663581  0.30288667    -0.02400
C1280       C  0.06742805  0.77150396  0.28997436    -0.00700
C1281       C  0.07539645  0.78155771  0.24697616    -0.04300
C1282       C  0.09143425  0.76699207  0.21797844     0.02700
C1283       C  0.09666138  0.70541503  0.28617810     0.09500
C1284       C  0.06537841  0.73576969  0.34595948     0.35400
C1285       C  0.09873808  0.77642527  0.17270498     0.38900
C1286       C  0.12004923  0.69997352  0.30747719    -0.04700
C1287       C  0.12616067  0.67470338  0.31956436     0.02500
C1288       C  0.10858949  0.65476200  0.31105410    -0.04300
C1289       C  0.08507454  0.66044027  0.28945122    -0.00500
C1290       C  0.07935466  0.68567175  0.27649292    -0.03100
C1291       C  0.13788761  0.72048706  0.31653954     0.36200
C1292       C  0.06617789  0.64066908  0.28217772     0.39800
C1293       C  0.15087498  0.66940250  0.33955311     0.38900
C1294       C  0.05569044  0.69143310  0.25290729     0.35800
C1295       C  0.11575880  0.72749281  0.20233762     0.36500
C1296       C  0.05212630  0.78673006  0.32121029     0.39800
N1297       N  0.17067623  0.66554909  0.35545810    -0.38300
N1298       N  0.15207450  0.73689114  0.32354952    -0.39900
N1299       N  0.05104471  0.62496747  0.27646591    -0.37600
N1300       N  0.03691408  0.69610478  0.23389626    -0.40000
N1301       N  0.05796698  0.72703425  0.38015472    -0.39800
N1302       N  0.03997322  0.79875097  0.34639312    -0.37400
N1303       N  0.10444505  0.78378060  0.13644566    -0.38500
N1304       N  0.12913144  0.71554942  0.17914744    -0.40100
C1305       C  0.38906171  0.46548347  0.76586964    -0.05100
C1306       C  0.41528209  0.46560593  0.75598680     0.09100
C1307       C  0.42589107  0.48523656  0.72872048    -0.02400
C1308       C  0.41065169  0.50570734  0.71409911    -0.00700
C1309       C  0.38479797  0.50680985  0.72732421    -0.04300
C1310       C  0.37376134  0.48611809  0.75170003     0.02700
C1311       C  0.43201080  0.44485211  0.77327153     0.09500
C1312       C  0.45264731  0.48456472  0.71634767     0.35400
C1313       C  0.34708655  0.48660739  0.76457632     0.38900
C1314       C  0.43681777  0.42367898  0.74509854    -0.04700
C1315       C  0.45620309  0.40638939  0.75686783     0.02500
C1316       C  0.47148425  0.41074569  0.79667445    -0.04300
C1317       C  0.46464494  0.43059764  0.82727001    -0.00500
C1318       C  0.44495218  0.44762045  0.81546000    -0.03100
C1319       C  0.42266484  0.42058366  0.70248639     0.36200
C1320       C  0.47783587  0.43368764  0.87082368     0.39800
C1321       C  0.46114831  0.38530558  0.72571555     0.38900
C1322       C  0.43855920  0.46852149  0.84597910     0.35800
C1323       C  0.37804019  0.44432184  0.79133464     0.36500
C1324       C  0.42164085  0.52569251  0.68549728     0.39800
N1325       N  0.46500909  0.36865373  0.70053821    -0.38300
N1326       N  0.41142654  0.41825481  0.66848454    -0.39900
N1327       N  0.48833762  0.43616730  0.90556600    -0.37600
N1328       N  0.43355584  0.48506825  0.87068627    -0.40000
N1329       N  0.47396263  0.48413719  0.70638214    -0.39800
N1330       N  0.43044988  0.54155248  0.66262716    -0.37400
N1331       N  0.32580275  0.48696304  0.77480857    -0.38500
N1332       N  0.36927996  0.42735372  0.81147908    -0.40100
C1333       C  0.22741485  0.63596711  0.75729682    -0.05100
C1334       C  0.21198556  0.61867551  0.78184401     0.09100
C1335       C  0.22112436  0.59417014  0.79307195    -0.02400
C1336       C  0.24545490  0.58658407  0.77831901    -0.00700
C1337       C  0.26099957  0.60380750  0.75322756    -0.04300
C1338       C  0.25193801  0.62864522  0.74319224     0.02700
C1339       C  0.18547690  0.62578859  0.79385711     0.09500
C1340       C  0.20522676  0.57667717  0.81923544     0.35400
C1341       C  0.26775415  0.64686414  0.71868145     0.38900
C1342       C  0.16531037  0.61687741  0.76640988    -0.04700
C1343       C  0.14007705  0.62236553  0.77883677     0.02500
C1344       C  0.13502037  0.63821424  0.81716489    -0.04300
C1345       C  0.15532460  0.64735887  0.84434898    -0.00500
C1346       C  0.18052350  0.64081272  0.83303012    -0.03100
C1347       C  0.17060499  0.60193846  0.72539938     0.36200
C1348       C  0.15023308  0.66208691  0.88562982     0.39800
C1349       C  0.11953452  0.61103407  0.75260254     0.38900
C1350       C  0.20137569  0.64887513  0.86223399     0.35800
C1351       C  0.21780912  0.66119770  0.74601803     0.36500
C1352       C  0.25374725  0.56055250  0.78673152     0.39800
N1353       N  0.10363936  0.60127753  0.73148932    -0.38300
N1354       N  0.17481686  0.59012042  0.69262887    -0.39900
N1355       N  0.14614777  0.67371437  0.91867581    -0.37600
N1356       N  0.21809154  0.65512828  0.88550467    -0.40000
N1357       N  0.19249665  0.56279440  0.84014754    -0.39800
N1358       N  0.26030241  0.53977493  0.79320797    -0.37400
N1359       N  0.28009041  0.66162553  0.69905051    -0.38500
N1360       N  0.21010100  0.68129646  0.73715119    -0.40100
C1361       C  0.25625275  0.51324060  0.57713317    -0.05100
C1362       C  0.24913783  0.52849273  0.53923209     0.09100
C1363       C  0.26209299  0.55155553  0.53047067    -0.02400
C1364       C  0.28079306  0.56035110  0.56122472    -0.00700
C1365       C  0.28737471  0.54571992  0.60092185    -0.04300
C1366       C  0.27556676  0.52156698  0.60752953     0.02700
C1367       C  0.22584982  0.52285170  0.51153008     0.09500
C1368       C  0.25502855  0.56706655  0.49080486     0.35400
C1369       C  0.28309066  0.50518341  0.64553788     0.38900
C1370       C  0.20276178  0.53404934  0.52545415    -0.04700
C1371       C  0.18385582  0.53947080  0.49252910     0.02500
C1372       C  0.18744227  0.53249463  0.44580629    -0.04300
C1373       C  0.20884680  0.51757844  0.43368336    -0.00500
C1374       C  0.22811791  0.51289604  0.46659911    -0.03100
C1375       C  0.19955037  0.54213899  0.57296001     0.36200
C1376       C  0.21251859  0.50963407  0.38629046     0.39800
C1377       C  0.16188946  0.55430232  0.50642501     0.38900
C1378       C  0.25119235  0.49963473  0.45351908     0.35800
C1379       C  0.24305745  0.48938166  0.58554651     0.36500
C1380       C  0.29170937  0.58543069  0.55294363     0.39800
N1381       N  0.14492963  0.56655685  0.51882216    -0.38300
N1382       N  0.19702157  0.54845170  0.61090676    -0.39900
N1383       N  0.21545927  0.50340569  0.34839327    -0.37600
N1384       N  0.26960453  0.48897368  0.44321497    -0.40000
N1385       N  0.24931376  0.57935252  0.45921524    -0.39800
N1386       N  0.30024859  0.60545488  0.54619807    -0.37400
N1387       N  0.28907613  0.49203554  0.67580620    -0.38500
N1388       N  0.23244829  0.47038304  0.59227040    -0.40100
C1389       C  0.53567272  0.60373842  0.27701556    -0.05100
C1390       C  0.53805374  0.58063604  0.25293561     0.09100
C1391       C  0.52296576  0.57647166  0.21346183    -0.02400
C1392       C  0.50413972  0.59441192  0.20025995    -0.00700
C1393       C  0.50019575  0.61689920  0.22648695    -0.04300
C1394       C  0.51723449  0.62194145  0.26374303     0.02700
C1395       C  0.55622071  0.56052036  0.26986427     0.09500
C1396       C  0.52681008  0.55357057  0.18644374     0.35400
C1397       C  0.51534824  0.64514591  0.29075638     0.38900
C1398       C  0.54767409  0.54116845  0.30015996    -0.04700
C1399       C  0.56439476  0.52159736  0.31451300     0.02500
C1400       C  0.58987375  0.52114819  0.29867302    -0.04300
C1401       C  0.59886860  0.54158992  0.27102944    -0.00500
C1402       C  0.58205831  0.56112448  0.25661132    -0.03100
C1403       C  0.52153197  0.54125129  0.31623234     0.36200
C1404       C  0.62497232  0.54173402  0.25479289     0.39800
C1405       C  0.55538013  0.50188368  0.34581805     0.38900
C1406       C  0.59111765  0.58158507  0.22707649     0.35800
C1407       C  0.55184081  0.60840558  0.31665451     0.36500
C1408       C  0.48917274  0.58971736  0.15918881     0.39800
N1409       N  0.54823016  0.48621874  0.37093514    -0.38300
N1410       N  0.50070997  0.54122261  0.32923288    -0.39900
N1411       N  0.64579735  0.54185883  0.24180692    -0.37600
N1412       N  0.59823602  0.59799386  0.20355430    -0.40000
N1413       N  0.52990790  0.53539801  0.16460567    -0.39800
N1414       N  0.47730210  0.58596776  0.12632293    -0.37400
N1415       N  0.51396969  0.66355356  0.31255203    -0.38500
N1416       N  0.56473266  0.61208181  0.34824647    -0.40100
C1417       C  0.35625911  0.61039014  0.92811487    -0.05100
C1418       C  0.37357405  0.59465918  0.95215100     0.09100
C1419       C  0.38238727  0.57192168  0.93164312    -0.02400
C1420       C  0.37475730  0.56550454  0.88647429    -0.00700
C1421       C  0.35861016  0.58201205  0.86151105    -0.04300
C1422       C  0.34888037  0.60414170  0.88284250     0.02700
C1423       C  0.38356944  0.60296927  0.99799022     0.09500
C1424       C  0.40012768  0.55575169  0.95639277     0.35400
C1425       C  0.33165949  0.62075788  0.85767542     0.38900
C1426       C  0.36982009  0.59760964  0.03868783    -0.04700
C1427       C  0.37796951  0.60765025  0.08128204     0.02500
C1428       C  0.40020553  0.62284975  0.08346362    -0.04300
C1429       C  0.41459848  0.62715710  0.04291550    -0.00500
C1430       C  0.40615061  0.61746335  0.00028097    -0.03100
C1431       C  0.34687142  0.58232562  0.03636650     0.36200
C1432       C  0.43824219  0.64138271  0.04513291     0.39800
C1433       C  0.36256071  0.60352884  0.12225357     0.38900
C1434       C  0.42029567  0.62297704  0.95838390     0.35800
C1435       C  0.34679103  0.63351616  0.94944591     0.36500
C1436       C  0.38463415  0.54272276  0.86461299     0.39800
N1437       N  0.35018868  0.60027680  0.15480820    -0.38300
N1438       N  0.32856660  0.57011293  0.03446267    -0.39900
N1439       N  0.45715409  0.65263714  0.04703344    -0.37600
N1440       N  0.43146574  0.62739959  0.92486566    -0.40000
N1441       N  0.41438754  0.54296475  0.97617242    -0.39800
N1442       N  0.39238203  0.52459597  0.84679926    -0.37400
N1443       N  0.31794815  0.63393853  0.83744704    -0.38500
N1444       N  0.33926654  0.65195756  0.96653166    -0.40100
C1445       C  0.39701843  0.60094932  0.49967403    -0.05100
C1446       C  0.41570030  0.62029315  0.50114435     0.09100
C1447       C  0.42450468  0.62932015  0.54397803    -0.02400
C1448       C  0.41365915  0.62001508  0.58523470    -0.00700
C1449       C  0.39414885  0.60153638  0.58361181    -0.04300
C1450       C  0.38641176  0.59144221  0.54091381     0.02700
C1451       C  0.42535917  0.63158566  0.45717859     0.09500
C1452       C  0.44402109  0.64884528  0.54537025     0.35400
C1453       C  0.36708140  0.57170341  0.53946347     0.38900
C1454       C  0.41464721  0.65433920  0.43982984    -0.04700
C1455       C  0.42113412  0.66308028  0.39525239     0.02500
C1456       C  0.43750246  0.64841819  0.36702231    -0.04300
C1457       C  0.44936134  0.62641781  0.38583080    -0.00500
C1458       C  0.44360768  0.61835113  0.43103819    -0.03100
C1459       C  0.39584451  0.66795089  0.46694445     0.36200
C1460       C  0.46691293  0.61140385  0.35848197     0.39800
C1461       C  0.40966519  0.68631218  0.37770797     0.38900
C1462       C  0.45573279  0.59582666  0.45025772     0.35800
C1463       C  0.38789796  0.59170052  0.45558368     0.36500
C1464       C  0.42163297  0.63037551  0.62923459     0.39800
N1465       N  0.40066666  0.70499373  0.36401191    -0.38300
N1466       N  0.38074928  0.67869787  0.48851726    -0.39900
N1467       N  0.48068956  0.59887859  0.33721223    -0.37600
N1468       N  0.46540855  0.57791138  0.46571619    -0.40000
N1469       N  0.45953701  0.66448986  0.54637308    -0.39800
N1470       N  0.42797377  0.63867006  0.66431664    -0.37400
N1471       N  0.35180381  0.55582775  0.53822698    -0.38500
N1472       N  0.38058653  0.58444548  0.42036903    -0.40100
C1473       C  0.25202884  0.60687130  0.25595182    -0.05100
C1474       C  0.26553434  0.62247050  0.28692889     0.09100
C1475       C  0.25408334  0.62986175  0.32882620    -0.02400
C1476       C  0.22948242  0.62104280  0.34039015    -0.00700
C1477       C  0.21605468  0.60496048  0.30973794    -0.04300
C1478       C  0.22742265  0.59811474  0.26725335     0.02700
C1479       C  0.29244056  0.62982109  0.27625975     0.09500
C1480       C  0.26797097  0.64603009  0.36050971     0.35400
C1481       C  0.21388454  0.58200870  0.23494940     0.38900
C1482       C  0.29775333  0.65240572  0.25166350    -0.04700
C1483       C  0.32301562  0.65844329  0.23904758     0.02500
C1484       C  0.34334215  0.64158219  0.25032809    -0.04300
C1485       C  0.33774899  0.61903668  0.27577253    -0.00500
C1486       C  0.31247482  0.61337303  0.28879348    -0.03100
C1487       C  0.27701637  0.66919686  0.23858634     0.36200
C1488       C  0.35761345  0.60084806  0.28695908     0.39800
C1489       C  0.32776734  0.68226540  0.21475860     0.38900
C1490       C  0.30685267  0.59014814  0.31428714     0.35800
C1491       C  0.26377154  0.59947650  0.21268159     0.36500
C1492       C  0.21877202  0.62720116  0.38514510     0.39800
N1493       N  0.33139670  0.70126759  0.19538129    -0.38300
N1494       N  0.26045123  0.68252770  0.22802933    -0.39900
N1495       N  0.37340214  0.58625847  0.29588452    -0.37600
N1496       N  0.30225258  0.57165449  0.33455273    -0.40000
N1497       N  0.27908448  0.65894217  0.38571337    -0.39800
N1498       N  0.21031681  0.63200545  0.42096860    -0.37400
N1499       N  0.20328241  0.56909335  0.20904019    -0.38500
N1500       N  0.27324539  0.59361639  0.17825002    -0.40100
C1501       C  0.35931286  0.83791070  0.26617809    -0.05100
C1502       C  0.37636032  0.82418055  0.29444771     0.09100
C1503       C  0.38723911  0.83598817  0.33339480    -0.02400
C1504       C  0.38097491  0.86137508  0.34418580    -0.00700
C1505       C  0.36301895  0.87464776  0.31721136    -0.04300
C1506       C  0.35235270  0.86302321  0.27793559     0.02700
C1507       C  0.38433081  0.79782723  0.28160286     0.09500
C1508       C  0.40531187  0.82212396  0.36174039     0.35400
C1509       C  0.33446833  0.87705706  0.24942496     0.38900
C1510       C  0.40801008  0.79408301  0.26009551    -0.04700
C1511       C  0.41654071  0.76926625  0.25022962     0.02500
C1512       C  0.40062797  0.74779297  0.25932162    -0.04300
C1513       C  0.37676614  0.75176395  0.28096313    -0.00500
C1514       C  0.36880101  0.77669666  0.29236942    -0.03100
C1515       C  0.42349329  0.81600949  0.24745832     0.36200
C1516       C  0.36086254  0.73025659  0.29378059     0.39800
C1517       C  0.44169284  0.76636446  0.23005894     0.38900
C1518       C  0.34469216  0.78071898  0.31562597     0.35800
C1519       C  0.34965255  0.82645216  0.22426875     0.36500
C1520       C  0.39401624  0.87426216  0.38148434     0.39800
N1521       N  0.46184649  0.76431964  0.21434421    -0.38300
N1522       N  0.43573429  0.83348753  0.23720690    -0.39900
N1523       N  0.34819249  0.71319926  0.30462589    -0.37600
N1524       N  0.32547506  0.78402768  0.33419407    -0.40000
N1525       N  0.41978727  0.81104666  0.38419067    -0.39800
N1526       N  0.40482490  0.88455075  0.41074430    -0.37400
N1527       N  0.32022663  0.88832623  0.22677762    -0.38500
N1528       N  0.34214703  0.81734624  0.19064328    -0.40100
C1529       C  0.57940475  0.97385591  0.77308574    -0.05100
C1530       C  0.55833235  0.96620332  0.74648875     0.09100
C1531       C  0.55519913  0.97599864  0.70135089    -0.02400
C1532       C  0.57158793  0.99529848  0.68481783    -0.00700
C1533       C  0.59173506  0.00398076  0.71260990    -0.04300
C1534       C  0.59644143  0.99221478  0.75568164     0.02700
C1535       C  0.53830858  0.94970637  0.76785056     0.09500
C1536       C  0.53458847  0.96683175  0.67269309     0.35400
C1537       C  0.61798240  0.00001933  0.78349757     0.38900
C1538       C  0.51507943  0.96070053  0.78191729    -0.04700
C1539       C  0.49629963  0.94560124  0.80338836     0.02500
C1540       C  0.50046606  0.91912710  0.81045949    -0.04300
C1541       C  0.52432102  0.90848247  0.79835533    -0.00500
C1542       C  0.54296779  0.92363107  0.77642686    -0.03100
C1543       C  0.51010153  0.98749697  0.77280258     0.36200
C1544       C  0.52986745  0.88199096  0.80896011     0.39800
C1545       C  0.47229495  0.95740287  0.81606152     0.38900
C1546       C  0.56671342  0.91225637  0.76133882     0.35800
C1547       C  0.58270505  0.96397078  0.81953373     0.36500
C1548       C  0.56755565  0.00655765  0.63964862     0.39800
N1549       N  0.45323647  0.96690003  0.82624431    -0.38300
N1550       N  0.50584857  0.00874051  0.76498327    -0.39900
N1551       N  0.53438267  0.86089885  0.81764893    -0.37600
N1552       N  0.58564677  0.90326141  0.74912447    -0.40000
N1553       N  0.51815508  0.95952842  0.64977357    -0.39800
N1554       N  0.56441632  0.01552452  0.60356565    -0.37400
N1555       N  0.63518489  0.00594659  0.80587123    -0.38500
N1556       N  0.58529754  0.95611943  0.85658758    -0.40100
C1557       C  0.36910585  0.75572792  0.80835240    -0.05100
C1558       C  0.37885589  0.74388446  0.76853989     0.09100
C1559       C  0.39711256  0.75647201  0.74099241    -0.02400
C1560       C  0.40529712  0.78111628  0.75273925    -0.00700
C1561       C  0.39622882  0.79274046  0.79349686    -0.04300
C1562       C  0.37833258  0.77977448  0.82165169     0.02700
C1563       C  0.37113064  0.71741301  0.75692008     0.09500
C1564       C  0.40810878  0.74363417  0.70140739     0.35400
C1565       C  0.37099988  0.78996964  0.86621500     0.38900
C1566       C  0.35487879  0.71291043  0.71924086    -0.04700
C1567       C  0.34936864  0.68774123  0.70580701     0.02500
C1568       C  0.35981423  0.66696911  0.73060835    -0.04300
C1569       C  0.37594638  0.67163982  0.76876709    -0.00500
C1570       C  0.38149430  0.69680534  0.78187922    -0.03100
C1571       C  0.34447435  0.73429449  0.69354540     0.36200
C1572       C  0.38736036  0.65080180  0.79454502     0.39800
C1573       C  0.33455105  0.68337731  0.66442775     0.38900
C1574       C  0.39842004  0.70155268  0.82047822     0.35800
C1575       C  0.35015565  0.74273405  0.83635244     0.36500
C1576       C  0.42317756  0.79437631  0.72289501     0.39800
N1577       N  0.32291785  0.68000835  0.63115408    -0.38300
N1578       N  0.33637997  0.75143956  0.67304443    -0.39900
N1579       N  0.39709624  0.63479146  0.81568414    -0.37600
N1580       N  0.41182840  0.70530733  0.85133177    -0.40000
N1581       N  0.41692490  0.73327651  0.67002951    -0.39800
N1582       N  0.43744976  0.80490121  0.69906998    -0.37400
N1583       N  0.36533222  0.79776772  0.90209459    -0.38500
N1584       N  0.33508468  0.73232086  0.85866542    -0.40100
C1585       C  0.45101245  0.76661421  0.06706894    -0.05100
C1586       C  0.47388090  0.76279446  0.04285500     0.09100
C1587       C  0.49044455  0.74297113  0.05633324    -0.02400
C1588       C  0.48347678  0.72602856  0.09249390    -0.00700
C1589       C  0.45963619  0.72871518  0.11498623    -0.04300
C1590       C  0.44391010  0.74994188  0.10286337     0.02700
C1591       C  0.47833273  0.77832779  0.00019672     0.09500
C1592       C  0.51433745  0.73973697  0.03207407     0.35400
C1593       C  0.41992417  0.75497373  0.12621013     0.38900
C1594       C  0.48509745  0.80433046  0.00394911    -0.04700
C1595       C  0.47960109  0.82144422  0.96754317     0.02500
C1596       C  0.46785061  0.81240740  0.92711666    -0.04300
C1597       C  0.46419319  0.78591942  0.92118563    -0.00500
C1598       C  0.46917129  0.76894035  0.95782614    -0.03100
C1599       C  0.49538918  0.81375968  0.04696391     0.36200
C1600       C  0.45399599  0.77617795  0.87824853     0.39800
C1601       C  0.48387612  0.84857608  0.97321586     0.38900
C1602       C  0.46235754  0.74220903  0.95360087     0.35800
C1603       C  0.43405735  0.78729183  0.05358423     0.36500
C1604       C  0.50046954  0.70537841  0.10496534     0.39800
N1605       N  0.48713885  0.87026370  0.97763469    -0.38300
N1606       N  0.50352859  0.82124118  0.08141208    -0.39900
N1607       N  0.44607455  0.76794581  0.84419858    -0.37600
N1608       N  0.45674246  0.72094155  0.95036903    -0.40000
N1609       N  0.53341064  0.73723974  0.01261953    -0.39800
N1610       N  0.51414053  0.68896970  0.11497578    -0.37400
N1611       N  0.40062698  0.75920886  0.14388526    -0.38500
N1612       N  0.42061753  0.80373594  0.04275008    -0.40100
C1613       C  0.25434569  0.93221777  0.79376086    -0.05100
C1614       C  0.26886185  0.91627321  0.76487738     0.09100
C1615       C  0.25779727  0.90562632  0.72508736    -0.02400
C1616       C  0.23221463  0.91093359  0.71413771    -0.00700
C1617       C  0.21766733  0.92718316  0.74278684    -0.04300
C1618       C  0.22895433  0.93797408  0.78246955     0.02700
C1619       C  0.29568148  0.91013075  0.77742709     0.09500
C1620       C  0.27293304  0.88951235  0.69511163     0.35400
C1621       C  0.21452656  0.95502922  0.81190834     0.38900
C1622       C  0.30113703  0.88709740  0.80033873    -0.04700
C1623       C  0.32617599  0.88154134  0.81420751     0.02500
C1624       C  0.34607345  0.89933886  0.80621542    -0.04300
C1625       C  0.34039249  0.92252708  0.78284764    -0.00500
C1626       C  0.31532612  0.92772176  0.76825804    -0.03100
C1627       C  0.28074053  0.86917341  0.81010232     0.36200
C1628       C  0.35996196  0.94159558  0.77495758     0.39800
C1629       C  0.33118001  0.85701574  0.83547527     0.38900
C1630       C  0.30956894  0.95135115  0.74418836     0.35800
C1631       C  0.26562777  0.94259620  0.83530848     0.36500
C1632       C  0.22137785  0.90078703  0.67201647     0.39800
N1633       N  0.33458672  0.83730552  0.85236842    -0.38300
N1634       N  0.26445012  0.85494124  0.81788495    -0.39900
N1635       N  0.37550550  0.95685426  0.76859855    -0.37600
N1636       N  0.30491921  0.97019105  0.72504980    -0.40000
N1637       N  0.28501860  0.87665273  0.67123725    -0.39800
N1638       N  0.21275488  0.89277430  0.63834963    -0.37400
N1639       N  0.20320901  0.96875787  0.83543493    -0.38500
N1640       N  0.27471713  0.95078324  0.86841992    -0.40100
C1641       C  0.39407191  0.94227749  0.54490076    -0.05100
C1642       C  0.39247056  0.91619948  0.55751171     0.09100
C1643       C  0.37938260  0.89900363  0.52866290    -0.02400
C1644       C  0.36657437  0.90806798  0.48947270    -0.00700
C1645       C  0.36956920  0.93369855  0.47534258    -0.04300
C1646       C  0.38368488  0.95072022  0.50268583     0.02700
C1647       C  0.40356612  0.90680277  0.60188475     0.09500
C1648       C  0.37929790  0.87185388  0.53897504     0.35400
C1649       C  0.38716906  0.97691421  0.48770164     0.38900
C1650       C  0.38746317  0.89604890  0.63593310    -0.04700
C1651       C  0.39796453  0.88518146  0.67590939     0.02500
C1652       C  0.42402732  0.88845230  0.68540794    -0.04300
C1653       C  0.44009273  0.89995814  0.65245000    -0.00500
C1654       C  0.43012165  0.90772267  0.60956880    -0.03100
C1655       C  0.36001670  0.89676308  0.63054373     0.36200
C1656       C  0.46681243  0.90371182  0.66280114     0.39800
C1657       C  0.38189831  0.87061551  0.70711415     0.38900
C1658       C  0.44715458  0.91640992  0.57338356     0.35800
C1659       C  0.40601758  0.96045533  0.57559983     0.36500
C1660       C  0.35016957  0.89083448  0.46414403     0.39800
N1661       N  0.36906909  0.85845840  0.73110579    -0.38300
N1662       N  0.33814586  0.89740532  0.62633438    -0.39900
N1663       N  0.48805240  0.90679950  0.67153963    -0.37600
N1664       N  0.46074257  0.92326633  0.54442533    -0.40000
N1665       N  0.37920377  0.85022591  0.54717586    -0.39800
N1666       N  0.33694335  0.87669844  0.44518754    -0.37400
N1667       N  0.39000677  0.99779992  0.47565447    -0.38500
N1668       N  0.41557604  0.97490966  0.60016148    -0.40100
C1669       C  0.40300888  0.94811466  0.02401176    -0.05100
C1670       C  0.38218633  0.93666465  0.04683251     0.09100
C1671       C  0.37004493  0.91531446  0.02753248    -0.02400
C1672       C  0.37956547  0.90448251  0.98680516    -0.00700
C1673       C  0.40138322  0.91497454  0.96522552    -0.04300
C1674       C  0.41254937  0.93735339  0.98296151     0.02700
C1675       C  0.37532953  0.94448467  0.09447317     0.09500
C1676       C  0.34820585  0.90401860  0.05057028     0.35400
C1677       C  0.43440655  0.94864724  0.96014637     0.38900
C1678       C  0.35602894  0.96255142  0.10254457    -0.04700
C1679       C  0.34886968  0.96852581  0.14815425     0.02500
C1680       C  0.36052898  0.95584092  0.18576617    -0.04300
C1681       C  0.38024935  0.93798892  0.17722511    -0.00500
C1682       C  0.38751718  0.93237645  0.13173383    -0.03100
C1683       C  0.34334069  0.97461373  0.06384186     0.36200
C1684       C  0.39306326  0.92474731  0.21454949     0.39800
C1685       C  0.33038166  0.98855567  0.15630976     0.38900
C1686       C  0.40722495  0.91353156  0.12296603     0.35800
C1687       C  0.41502018  0.97043743  0.04375711     0.36500
C1688       C  0.36659288  0.88267453  0.96694953     0.39800
N1689       N  0.31581759  0.00469718  0.16286845    -0.38300
N1690       N  0.33314330  0.98411155  0.03288264    -0.39900
N1691       N  0.40412813  0.91375541  0.24280363    -0.37600
N1692       N  0.42283704  0.89849326  0.11578613    -0.40000
N1693       N  0.33081204  0.89502643  0.06897793    -0.39800
N1694       N  0.35610059  0.86531983  0.95139354    -0.37400
N1695       N  0.45185533  0.95768621  0.94198386    -0.38500
N1696       N  0.42451644  0.98825678  0.05968286    -0.40100
loop_ 
_geom_bond_atom_site_label_1 
_geom_bond_atom_site_label_2 
_geom_bond_distance 
_geom_bond_site_symmetry_2 
_ccdc_geom_bond_type 
O1          Cr19   2.007       .  S
O1            C9   1.264       .  A
O2          Cr19   1.974       .  S
O2            C3   1.260       .  A
C3            O4   1.267       .  A
C3         C1540   1.489       .  S
O4          Cr20   2.009       .  S
O5          Cr20   1.984       .  S
O5            C6   1.264       .  A
C6            O7   1.270       .  A
C6         C1596   1.479       .  S
O7          Cr21   2.011       .  S
O8          Cr21   1.962       .  S
O8            C9   1.257       .  A
C9         C1673   1.475       .  S
O10         Cr19   1.970       .  S
O10          C18   1.258       .  A
O11         Cr19   2.000       .  S
O11          C12   1.263       .  A
C12          O13   1.259       .  A
C12        C1652   1.468       .  S
O13         Cr20   1.977       .  S
O14         Cr20   1.998       .  S
O14          C15   1.262       .  A
C15          O16   1.255       .  A
C15        C1561   1.477       .  S
O16         Cr21   1.966       .  S
O17         Cr21   2.013       .  S
O17          C18   1.267       .  A
C18        C1624   1.496       .  S
Cr19         O22   1.767       .  S
Cr20         O22   1.770       .  S
Cr21         O22   1.759       .  S
O23         Cr41   2.016       .  S
O23          C31   1.267       .  A
O24         Cr41   1.992       .  S
O24          C25   1.266       .  A
C25          O26   1.264       .  A
C25        C1393   1.513       .  S
O26         Cr42   1.997       .  S
O27         Cr42   2.008       .  S
O27          C28   1.269       .  A
C28          O29   1.259       .  A
C28        C1589   1.504       .  S
O29         Cr43   1.971       .  S
O30         Cr43   1.970       .  S
O30          C31   1.259       .  A
C31        C1428   1.486       .  S
O32         Cr41   1.991       .  S
O32          C40   1.260       .  A
O33         Cr41   1.988       .  S
O33          C34   1.260       .  A
C34          O35   1.263       .  A
C34        C1456   1.488       .  S
O35         Cr42   1.990       .  S
O36         Cr42   1.988       .  S
O36          C37   1.262       .  A
C37          O38   1.264       .  A
C37        C1512   1.495       .  S
O38         Cr43   1.990       .  S
O39         Cr43   1.997       .  S
O39          C40   1.260       .  A
C40        C1484   1.503       .  S
Cr41         O44   1.779       .  S
Cr42         O44   1.778       .  S
Cr43         O44   1.774       .  S
O45         Cr63   1.995       .  S
O45          C53   1.263       .  A
O46         Cr63   1.969       .  S
O46          C47   1.259       .  A
C47          O48   1.271       .  A
C47        C1365   1.502       .  S
O48         Cr64   2.027       .  S
O49         Cr64   1.972       .  S
O49          C50   1.259       .  A
C50          O51   1.264       .  A
C50        C1309   1.476       .  S
O51         Cr65   1.991       .  S
O52         Cr65   1.980       .  S
O52          C53   1.261       .  A
C53        C1449   1.471       .  S
O54         Cr63   1.979       .  S
O54          C62   1.261       .  A
O55         Cr63   2.000       .  S
O55          C56   1.263       .  A
C56          O57   1.257       .  A
C56        C1337   1.479       .  S
O57         Cr64   1.968       .  S
O58         Cr64   2.024       .  S
O58          C59   1.268       .  A
C59          O60   1.255       .  A
C59        C1421   1.479       .  S
O60         Cr65   1.960       .  S
O61         Cr65   1.994       .  S
O61          C62   1.262       .  A
C62        C1568   1.478       .  S
Cr63         O66   1.760       .  S
Cr64         O66   1.771       .  S
Cr65         O66   1.763       .  S
O67         Cr85   1.974       .  S
O67          C75   1.258       .  A
O68         Cr85   1.993       .  S
O68          C69   1.265       .  A
C69          O70   1.267       .  A
C69        C1372   1.486       .  S
O70         Cr86   1.995       .  S
O71         Cr86   2.008       .  S
O71          C72   1.267       .  A
C72          O73   1.262       .  A
C72        C1197   1.500       .  S
O73         Cr87   1.979       .  S
O74         Cr87   2.015       .  S
O74          C75   1.264       .  A
C75        C1225   1.483       .  S
O76         Cr85   2.002       .  S
O76          C84   1.265       .  A
O77         Cr85   1.982       .  S
O77          C78   1.260       .  A
C78          O79   1.264       .  A
C78        C1477   1.489       .  S
O79         Cr86   2.005       .  S
O80         Cr86   1.994       .  S
O80          C81   1.264       .  A
C81          O82   1.262       .  A
C81        C1260   1.480       .  S
O82         Cr87   1.998       .  S
O83         Cr87   1.967       .  S
O83          C84   1.258       .  A
C84        C1288   1.484       .  S
Cr85         O88   1.767       .  S
Cr86         O88   1.771       .  S
Cr87         O88   1.772       .  S
O89        Cr107   2.021       .  S
O89          C97   1.269       .  A
O90        Cr107   1.965       .  S
O90          C91   1.259   1_455  A
C91          O92   1.265   1_655  A
C91        C1057   1.467       .  S
O92        Cr108   2.003       .  S
O93        Cr108   1.984       .  S
O93          C94   1.261       .  A
C94          O95   1.269       .  A
C94        C1113   1.478       .  S
O95        Cr109   2.011       .  S
O96        Cr109   1.973       .  S
O96          C97   1.261       .  A
C97        C1176   1.506       .  S
O98        Cr107   1.963       .  S
O98         C106   1.255       .  A
O99        Cr107   2.009       .  S
O99         C100   1.263       .  A
C100        O101   1.258       .  A
C100       C1141   1.480       .  S
O101       Cr108   1.982       .  S
O102       Cr108   1.995       .  S
O102        C103   1.263       .  A
C103        O104   1.256       .  A
C103       C1281   1.475       .  S
O104       Cr109   1.966       .  S
O105       Cr109   2.011       .  S
O105        C106   1.265       .  A
C106       C1092   1.487       .  S
Cr107       O110   1.762       .  S
Cr108       O110   1.774       .  S
Cr109       O110   1.766       .  S
O111       Cr129   1.986       .  S
O111        C119   1.263       .  A
O112       Cr129   1.992       .  S
O112        C113   1.262   1_455  A
C113        O114   1.261       .  A
C113       C1008   1.488       .  S
O114       Cr130   1.985   1_655  S
O115       Cr130   2.017       .  S
O115        C116   1.269       .  A
C116        O117   1.262       .  A
C116       C1120   1.483       .  S
O117       Cr131   1.969       .  S
O118       Cr131   2.001       .  S
O118        C119   1.264       .  A
C119       C1253   1.477       .  S
O120       Cr129   1.991       .  S
O120        C128   1.260       .  A
O121       Cr129   1.958       .  S
O121        C122   1.257       .  A
C122        O123   1.268       .  A
C122       C1232   1.480       .  S
O123       Cr130   2.024       .  S
O124       Cr130   1.986       .  S
O124        C125   1.260       .  A
C125        O126   1.260       .  A
C125       C1029   1.482       .  S
O126       Cr131   1.992       .  S
O127       Cr131   1.975       .  S
O127        C128   1.259       .  A
C128       C1344   1.474       .  S
Cr129       O132   1.772       .  S
Cr130       O132   1.781       .  S
Cr131       O132   1.769       .  S
O133       Cr151   1.965       .  S
O133        C141   1.255       .  A
O134       Cr151   2.005       .  S
O134        C135   1.269       .  A
C135        O136   1.264       .  A
C135        C973   1.478       .  S
O136       Cr152   1.984       .  S
O137       Cr152   1.996   1_545  S
O137        C138   1.264       .  A
C138        O139   1.261   1_545  A
C138        C952   1.494       .  S
O139       Cr153   1.980       .  S
O140       Cr153   2.003       .  S
O140        C141   1.263       .  A
C141       C1645   1.472       .  S
O142       Cr151   2.002       .  S
O142        C150   1.262       .  A
O143       Cr151   1.964       .  S
O143        C144   1.253       .  A
C144        O145   1.261       .  A
C144       C1085   1.476       .  S
O145       Cr152   2.002       .  S
O146       Cr152   1.984       .  S
O146        C147   1.264       .  A
C147        O148   1.265       .  A
C147       C1680   1.483       .  S
O148       Cr153   2.003       .  S
O149       Cr153   1.965       .  S
O149        C150   1.255       .  A
C150       C1505   1.471       .  S
Cr151       O154   1.766       .  S
Cr152       O154   1.772       .  S
Cr153       O154   1.768       .  S
O155       Cr173   1.977       .  S
O155        C163   1.261       .  A
O156       Cr173   1.985       .  S
O156        C157   1.262       .  A
C157        O158   1.270       .  A
C157        C980   1.498       .  S
O158       Cr174   2.012       .  S
O159       Cr174   1.995       .  S
O159        C160   1.260   1_565  A
C160        O161   1.263   1_545  A
C160        C924   1.514       .  S
O161       Cr175   1.995       .  S
O162       Cr175   2.006       .  S
O162        C163   1.264       .  A
C163       C1148   1.487       .  S
O164       Cr173   1.983       .  S
O164        C172   1.259       .  A
O165       Cr173   1.982       .  S
O165        C166   1.261       .  A
C166        O167   1.262       .  A
C166       C1617   1.482       .  S
O167       Cr174   1.998       .  S
O168       Cr174   1.998       .  S
O168        C169   1.267       .  A
C169        O170   1.266       .  A
C169       C1169   1.488       .  S
O170       Cr175   1.997       .  S
O171       Cr175   1.988       .  S
O171        C172   1.262       .  A
C172       C1036   1.503       .  S
Cr173       O176   1.766       .  S
Cr174       O176   1.773       .  S
Cr175       O176   1.775       .  S
O177       Cr195   1.984       .  S
O177        C185   1.262       .  A
O178       Cr195   1.997       .  S
O178        C179   1.263       .  A
C179        O180   1.263       .  A
C179       C1400   1.493       .  S
O180       Cr196   1.994       .  S
O181       Cr196   2.033       .  S
O181        C182   1.271       .  A
C182        O183   1.258       .  A
C182        C812   1.492       .  S
O183       Cr197   1.961       .  S
O184       Cr197   2.000       .  S
O184        C185   1.265       .  A
C185        C889   1.483       .  S
O186       Cr195   2.009       .  S
O186        C194   1.264       .  A
O187       Cr195   1.966       .  S
O187        C188   1.259       .  A
C188        O189   1.271       .  A
C188        C868   1.481       .  S
O189       Cr196   2.028       .  S
O190       Cr196   1.988       .  S
O190        C191   1.261       .  A
C191        O192   1.260       .  A
C191        C777   1.481       .  S
O192       Cr197   1.991       .  S
O193       Cr197   1.981       .  S
O193        C194   1.259       .  A
C194        C840   1.492       .  S
Cr195       O198   1.773       .  S
Cr196       O198   1.784       .  S
Cr197       O198   1.768       .  S
O199       Cr217   1.986       .  S
O199        C207   1.263       .  A
O200       Cr217   1.996       .  S
O200        C201   1.264       .  A
C201        O202   1.262       .  A
C201       C1001   1.490       .  S
O202       Cr218   1.986       .  S
O203       Cr218   2.025       .  S
O203        C204   1.271       .  A
C204        O205   1.264       .  A
C204        C805   1.492       .  S
O205       Cr219   1.977       .  S
O206       Cr219   1.989       .  S
O206        C207   1.261       .  A
C207        C665   1.481       .  S
O208       Cr217   2.000       .  S
O208        C216   1.263       .  A
O209       Cr217   1.958       .  S
O209        C210   1.254       .  A
C210        O211   1.265       .  A
C210        C700   1.474       .  S
O211       Cr218   2.014       .  S
O212       Cr218   1.988       .  S
O212        C213   1.259       .  A
C213        O214   1.259       .  A
C213        C749   1.492       .  S
O214       Cr219   1.991       .  S
O215       Cr219   1.989       .  S
O215        C216   1.264       .  A
C216        C728   1.482       .  S
Cr217       O220   1.772       .  S
Cr218       O220   1.781       .  S
Cr219       O220   1.767       .  S
O221       Cr239   1.976       .  S
O221        C229   1.261       .  A
O222       Cr239   1.997       .  S
O222        C223   1.266       .  A
C223        O224   1.264       .  A
C223        C644   1.487       .  S
O224       Cr240   1.996       .  S
O225       Cr240   1.996       .  S
O225        C226   1.262       .  A
C226        O227   1.263       .  A
C226       C1204   1.504   1_655  S
O227       Cr241   1.987       .  S
O228       Cr241   2.002       .  S
O228        C229   1.265       .  A
C229        C693   1.495       .  S
O230       Cr239   1.992       .  S
O230        C238   1.260       .  A
O231       Cr239   1.978       .  S
O231        C232   1.258       .  A
C232        O233   1.266       .  A
C232        C609   1.501       .  S
O233       Cr240   2.016       .  S
O234       Cr240   1.993       .  S
O234        C235   1.267       .  A
C235        O236   1.265       .  A
C235        C672   1.496       .  S
O236       Cr241   1.994       .  S
O237       Cr241   1.987       .  S
O237        C238   1.262       .  A
C238        C784   1.499       .  S
Cr239       O242   1.769       .  S
Cr240       O242   1.779       .  S
Cr241       O242   1.774       .  S
O243       Cr261   2.002       .  S
O243        C251   1.264       .  A
O244       Cr261   1.972       .  S
O244        C245   1.261       .  A
C245        O246   1.269       .  A
C245        C637   1.481       .  S
O246       Cr262   2.023       .  S
O247       Cr262   1.983       .  S
O247        C248   1.262       .  A
C248        O249   1.264       .  A
C248        C917   1.483       .  S
O249       Cr263   1.997       .  S
O250       Cr263   1.979       .  S
O250        C251   1.261       .  A
C251        C525   1.476       .  S
O252       Cr261   1.982       .  S
O252        C260   1.261       .  A
O253       Cr261   2.001       .  S
O253        C254   1.263       .  A
C254        O255   1.258       .  A
C254        C721   1.488       .  S
O255       Cr262   1.980       .  S
O256       Cr262   2.016       .  S
O256        C257   1.265       .  A
C257        O258   1.255       .  A
C257        C560   1.476       .  S
O258       Cr263   1.961       .  S
O259       Cr263   1.994       .  S
O259        C260   1.261       .  A
C260        C581   1.482       .  S
Cr261       O264   1.769       .  S
Cr262       O264   1.780       .  S
Cr263       O264   1.770       .  S
O265       Cr283   1.968       .  S
O265        C273   1.256       .  A
O266       Cr283   2.005       .  S
O266        C267   1.266       .  A
C267        O268   1.259       .  A
C267       C1533   1.474       .  S
O268       Cr284   1.972       .  S
O269       Cr284   2.025       .  S
O269        C270   1.269       .  A
C270        O271   1.258       .  A
C270        C441   1.475       .  S
O271       Cr285   1.964       .  S
O272       Cr285   2.002       .  S
O272        C273   1.264       .  A
C273        C497   1.474       .  S
O274       Cr283   2.021       .  S
O274        C282   1.269       .  A
O275       Cr283   1.964       .  S
O275        C276   1.257       .  A
C276        O277   1.264       .  A
C276        C469   1.470       .  S
O277       Cr284   2.009       .  S
O278       Cr284   1.973       .  S
O278        C279   1.256       .  A
C279        O280   1.262       .  A
C279        C588   1.486       .  S
O280       Cr285   1.996       .  S
O281       Cr285   1.971       .  S
O281        C282   1.258       .  A
C282        C413   1.487       .  S
Cr283       O286   1.767       .  S
Cr284       O286   1.773       .  S
Cr285       O286   1.764       .  S
O287       Cr305   2.007       .  S
O287        C295   1.266       .  A
O288       Cr305   1.962       .  S
O288        C289   1.257       .  A
C289        O290   1.267       .  A
C289       C1064   1.468       .  S
O290       Cr306   2.008       .  S
O291       Cr306   1.987       .  S
O291        C292   1.262       .  A
C292        O293   1.269       .  A
C292        C448   1.481       .  S
O293       Cr307   2.012       .  S
O294       Cr307   1.973       .  S
O294        C295   1.260       .  A
C295        C553   1.501       .  S
O296       Cr305   1.969       .  S
O296        C304   1.257       .  A
O297       Cr305   2.001       .  S
O297        C298   1.261       .  A
C298        O299   1.260       .  A
C298        C532   1.479       .  S
O299       Cr306   1.987       .  S
O300       Cr306   1.999       .  S
O300        C301   1.264       .  A
C301        O302   1.256       .  A
C301        C392   1.470       .  S
O302       Cr307   1.962       .  S
O303       Cr307   2.020       .  S
O303        C304   1.267       .  A
C304        C616   1.511       .  S
Cr305       O308   1.759       .  S
Cr306       O308   1.774       .  S
Cr307       O308   1.762       .  S
O309       Cr327   1.975       .  S
O309        C317   1.260       .  A
O310       Cr327   1.994       .  S
O310        C311   1.263       .  A
C311        O312   1.263       .  A
C311        C357   1.494       .  S
O312       Cr328   1.996       .  S
O313       Cr328   1.981       .  S
O313        C314   1.260       .  A
C314        O315   1.264       .  A
C314       C1316   1.492       .  S
O315       Cr329   1.982       .  S
O316       Cr329   2.012       .  S
O316        C317   1.265       .  A
C317        C861   1.489       .  S
O318       Cr327   1.993       .  S
O318        C326   1.262       .  A
O319       Cr327   1.988       .  S
O319        C320   1.262       .  A
C320        O321   1.264       .  A
C320        C420   1.493       .  S
O321       Cr328   1.996       .  S
O322       Cr328   1.997       .  S
O322        C323   1.266       .  A
C323        O324   1.262       .  A
C323        C896   1.494       .  S
O324       Cr329   1.990       .  S
O325       Cr329   1.988       .  S
O325        C326   1.261       .  A
C326        C756   1.497       .  S
Cr327       O330   1.766       .  S
Cr328       O330   1.770       .  S
Cr329       O330   1.773       .  S
O331       Cr349   1.969       .  S
O331        C339   1.259       .  A
O332       Cr349   1.997       .  S
O332        C333   1.265       .  A
C333        O334   1.265       .  A
C333        C364   1.493       .  S
O334       Cr350   1.994       .  S
O335       Cr350   1.991       .  S
O335        C336   1.262       .  A
C336        O337   1.261       .  A
C336        C945   1.503       .  S
O337       Cr351   1.979       .  S
O338       Cr351   2.004       .  S
O338        C339   1.264       .  A
C339        C476   1.482       .  S
O340       Cr349   2.001       .  S
O340        C348   1.263       .  A
O341       Cr349   1.986       .  S
O341        C342   1.262       .  A
C342        O343   1.264       .  A
C342        C833   1.491       .  S
O343       Cr350   2.005       .  S
O344       Cr350   1.992       .  S
O344        C345   1.266       .  A
C345        O346   1.262       .  A
C345        C504   1.485       .  S
O346       Cr351   1.990       .  S
O347       Cr351   1.975       .  S
O347        C348   1.258       .  A
C348        C385   1.489       .  S
Cr349       O352   1.764       .  S
Cr350       O352   1.767       .  S
Cr351       O352   1.773       .  S
C353        C354   1.409       .  A
C353        C358   1.416       .  A
C353        C371   1.449       .  S
C354        C359   1.495   1_556  S
C354        C355   1.408   1_556  A
C355        C356   1.406   1_554  A
C355        C360   1.453       .  S
C356        C357   1.420       .  A
C356        C372   1.452       .  S
C357        C358   1.418       .  A
C358        C361   1.449       .  S
C359        C362   1.408       .  A
C359        C366   1.409       .  A
C360        N377   1.158       .  T
C361        N379   1.158       .  T
C362        C363   1.406       .  A
C362        C367   1.453   1_554  S
C363        C364   1.419       .  A
C363        C369   1.452       .  S
C364        C365   1.418       .  A
C365        C366   1.416       .  A
C365        C368   1.449       .  S
C366        C370   1.449       .  S
C367        N374   1.157       .  T
C368        N375   1.158       .  T
C369        N373   1.157       .  T
C370        N376   1.157       .  T
C371        N380   1.157       .  T
C372        N378   1.157       .  T
C381        C382   1.404       .  A
C381        C386   1.404       .  A
C381        C399   1.453       .  S
C382        C387   1.483       .  S
C382        C383   1.407       .  A
C383        C384   1.410       .  A
C383        C388   1.451       .  S
C384        C385   1.420       .  A
C384        C400   1.451       .  S
C385        C386   1.419       .  A
C386        C389   1.448       .  S
C387        C390   1.408       .  A
C387        C394   1.410       .  A
C388        N405   1.157       .  T
C389        N407   1.156       .  T
C390        C391   1.404       .  A
C390        C395   1.451       .  S
C391        C392   1.415       .  A
C391        C397   1.453       .  S
C392        C393   1.411       .  A
C393        C394   1.406       .  A
C393        C396   1.451       .  S
C394        C398   1.451       .  S
C395        N402   1.157       .  T
C396        N403   1.157       .  T
C397        N401   1.157       .  T
C398        N404   1.157       .  T
C399        N408   1.157       .  T
C400        N406   1.157       .  T
C409        C410   1.411       .  A
C409        C414   1.411       .  A
C409        C427   1.450       .  S
C410        C415   1.496       .  S
C410        C411   1.410       .  A
C411        C412   1.411       .  A
C411        C416   1.451       .  S
C412        C413   1.416       .  A
C412        C428   1.449       .  S
C413        C414   1.413       .  A
C414        C417   1.450       .  S
C415        C418   1.408       .  A
C415        C422   1.410       .  A
C416        N433   1.157       .  T
C417        N435   1.157       .  T
C418        C419   1.408       .  A
C418        C423   1.452       .  S
C419        C420   1.420       .  A
C419        C425   1.452       .  S
C420        C421   1.418       .  A
C421        C422   1.414       .  A
C421        C424   1.451       .  S
C422        C426   1.450       .  S
C423        N430   1.157       .  T
C424        N431   1.158       .  T
C425        N429   1.157       .  T
C426        N432   1.157       .  T
C427        N436   1.157       .  T
C428        N434   1.157       .  T
C437        C438   1.413       .  A
C437        C442   1.415       .  A
C437        C455   1.449   1_545  S
C438        C443   1.495       .  S
C438        C439   1.413       .  A
C439        C440   1.404       .  A
C439        C444   1.453       .  S
C440        C441   1.410       .  A
C440        C456   1.452       .  S
C441        C442   1.411       .  A
C442        C445   1.450       .  S
C443        C446   1.410       .  A
C443        C450   1.413       .  A
C444        N461   1.157       .  T
C445        N463   1.158   1_545  T
C446        C447   1.407       .  A
C446        C451   1.451       .  S
C447        C448   1.411       .  A
C447        C453   1.450       .  S
C448        C449   1.409       .  A
C449        C450   1.413       .  A
C449        C452   1.448       .  S
C450        C454   1.449   1_545  S
C451        N458   1.158       .  T
C452        N459   1.157   1_545  T
C453        N457   1.157       .  T
C454        N460   1.157       .  T
C455        N464   1.157       .  T
C456        N462   1.157       .  T
C465        C466   1.414       .  A
C465        C470   1.407       .  A
C465        C483   1.451       .  S
C466        C471   1.492       .  S
C466        C467   1.411       .  A
C467        C468   1.408       .  A
C467        C472   1.451       .  S
C468        C469   1.411       .  A
C468        C484   1.451       .  S
C469        C470   1.407       .  A
C470        C473   1.450       .  S
C471        C474   1.412       .  A
C471        C478   1.411   1_556  A
C472        N489   1.157       .  T
C473        N491   1.157       .  T
C474        C475   1.407   1_556  A
C474        C479   1.451       .  S
C475        C476   1.412       .  A
C475        C481   1.451       .  S
C476        C477   1.416       .  A
C477        C478   1.408       .  A
C477        C480   1.451       .  S
C478        C482   1.451       .  S
C479        N486   1.157       .  T
C480        N487   1.157       .  T
C481        N485   1.158       .  T
C482        N488   1.157       .  T
C483        N492   1.157       .  T
C484        N490   1.157       .  T
C493        C494   1.413       .  A
C493        C498   1.407       .  A
C493        C511   1.452       .  S
C494        C499   1.492       .  S
C494        C495   1.410       .  A
C495        C496   1.408       .  A
C495        C500   1.451       .  S
C496        C497   1.413       .  A
C496        C512   1.452       .  S
C497        C498   1.410       .  A
C498        C501   1.452       .  S
C499        C502   1.408       .  A
C499        C506   1.411       .  A
C500        N517   1.157       .  T
C501        N519   1.157       .  T
C502        C503   1.408       .  A
C502        C507   1.452       .  S
C503        C504   1.418       .  A
C503        C509   1.450       .  S
C504        C505   1.414       .  A
C505        C506   1.408       .  A
C505        C508   1.450       .  S
C506        C510   1.451       .  S
C507        N514   1.157       .  T
C508        N515   1.157       .  T
C509        N513   1.156       .  T
C510        N516   1.157       .  T
C511        N520   1.158       .  T
C512        N518   1.157       .  T
C521        C522   1.410   1_556  A
C521        C526   1.410       .  A
C521        C539   1.451       .  S
C522        C527   1.494       .  S
C522        C523   1.412       .  A
C523        C524   1.410   1_554  A
C523        C528   1.449       .  S
C524        C525   1.409       .  A
C524        C540   1.450   1_556  S
C525        C526   1.414       .  A
C526        C529   1.451       .  S
C527        C530   1.410       .  A
C527        C534   1.413       .  A
C528        N545   1.157       .  T
C529        N547   1.157       .  T
C530        C531   1.409       .  A
C530        C535   1.451       .  S
C531        C532   1.413       .  A
C531        C537   1.450       .  S
C532        C533   1.412       .  A
C533        C534   1.410       .  A
C533        C536   1.452       .  S
C534        C538   1.450       .  S
C535        N542   1.157       .  T
C536        N543   1.157       .  T
C537        N541   1.157       .  T
C538        N544   1.157       .  T
C539        N548   1.157       .  T
C540        N546   1.157       .  T
C549        C550   1.408       .  A
C549        C554   1.410       .  A
C549        C567   1.453       .  S
C550        C555   1.495       .  S
C550        C551   1.407       .  A
C551        C552   1.412       .  A
C551        C556   1.451       .  S
C552        C553   1.425       .  A
C552        C568   1.453       .  S
C553        C554   1.421       .  A
C554        C557   1.449       .  S
C555        C558   1.412       .  A
C555        C562   1.411       .  A
C556        N573   1.157       .  T
C557        N575   1.157       .  T
C558        C559   1.411       .  A
C558        C563   1.450       .  S
C559        C560   1.411       .  A
C559        C565   1.450       .  S
C560        C561   1.412       .  A
C561        C562   1.408       .  A
C561        C564   1.452       .  S
C562        C566   1.451       .  S
C563        N570   1.157       .  T
C564        N571   1.157       .  T
C565        N569   1.157       .  T
C566        N572   1.157       .  T
C567        N576   1.157       .  T
C568        N574   1.157       .  T
C577        C578   1.407       .  A
C577        C582   1.409       .  A
C577        C595   1.450       .  S
C578        C583   1.486       .  S
C578        C579   1.407       .  A
C579        C580   1.405       .  A
C579        C584   1.453       .  S
C580        C581   1.418       .  A
C580        C596   1.451       .  S
C581        C582   1.416       .  A
C582        C585   1.450       .  S
C583        C586   1.406       .  A
C583        C590   1.408       .  A
C584        N601   1.157       .  T
C585        N603   1.157       .  T
C586        C587   1.405       .  A
C586        C591   1.452       .  S
C587        C588   1.419       .  A
C587        C593   1.452       .  S
C588        C589   1.419       .  A
C589        C590   1.408       .  A
C589        C592   1.451       .  S
C590        C594   1.452       .  S
C591        N598   1.157       .  T
C592        N599   1.158       .  T
C593        N597   1.157       .  T
C594        N600   1.157       .  T
C595        N604   1.157       .  T
C596        N602   1.157       .  T
C605        C606   1.408       .  A
C605        C610   1.412       .  A
C605        C623   1.451       .  S
C606        C611   1.499       .  S
C606        C607   1.409       .  A
C607        C608   1.413       .  A
C607        C612   1.451       .  S
C608        C609   1.420       .  A
C608        C624   1.450       .  S
C609        C610   1.423       .  A
C610        C613   1.452       .  S
C611        C614   1.407       .  A
C611        C618   1.407       .  A
C612        N629   1.157       .  T
C613        N631   1.157       .  T
C614        C615   1.412       .  A
C614        C619   1.452       .  S
C615        C616   1.428       .  A
C615        C621   1.452       .  S
C616        C617   1.425       .  A
C617        C618   1.413       .  A
C617        C620   1.451       .  S
C618        C622   1.451       .  S
C619        N626   1.157       .  T
C620        N627   1.158       .  T
C621        N625   1.157       .  T
C622        N628   1.157       .  T
C623        N632   1.157       .  T
C624        N630   1.158       .  T
C633        C634   1.413       .  A
C633        C638   1.413       .  A
C633        C651   1.449   1_656  S
C634        C639   1.500   1_556  S
C634        C635   1.413       .  A
C635        C636   1.410       .  A
C635        C640   1.451       .  S
C636        C637   1.411       .  A
C636        C652   1.450       .  S
C637        C638   1.410       .  A
C638        C641   1.450       .  S
C639        C642   1.414       .  A
C639        C646   1.412       .  A
C640        N657   1.157       .  T
C641        N659   1.157       .  T
C642        C643   1.417       .  A
C642        C647   1.449   1_655  S
C643        C644   1.413       .  A
C643        C649   1.449       .  S
C644        C645   1.413       .  A
C645        C646   1.405       .  A
C645        C648   1.451       .  S
C646        C650   1.452       .  S
C647        N654   1.157   1_554  T
C648        N655   1.157       .  T
C649        N653   1.157   1_655  T
C650        N656   1.157       .  T
C651        N660   1.157       .  T
C652        N658   1.157       .  T
C661        C662   1.410       .  A
C661        C666   1.406       .  A
C661        C679   1.451       .  S
C662        C667   1.495       .  S
C662        C663   1.410       .  A
C663        C664   1.413       .  A
C663        C668   1.450       .  S
C664        C665   1.415       .  A
C664        C680   1.451       .  S
C665        C666   1.413       .  A
C666        C669   1.451       .  S
C667        C670   1.405       .  A
C667        C674   1.411       .  A
C668        N685   1.157       .  T
C669        N687   1.157       .  T
C670        C671   1.409       .  A
C670        C675   1.452       .  S
C671        C672   1.423       .  A
C671        C677   1.451       .  S
C672        C673   1.418       .  A
C673        C674   1.412       .  A
C673        C676   1.451       .  S
C674        C678   1.451       .  S
C675        N682   1.157       .  T
C676        N683   1.157       .  T
C677        N681   1.157       .  T
C678        N684   1.157       .  T
C679        N688   1.156       .  T
C680        N686   1.157       .  T
C689        C690   1.407   1_554  A
C689        C694   1.410       .  A
C689        C707   1.451       .  S
C690        C695   1.494       .  S
C690        C691   1.410       .  A
C691        C692   1.411   1_556  A
C691        C696   1.452       .  S
C692        C693   1.418       .  A
C692        C708   1.449       .  S
C693        C694   1.422       .  A
C694        C697   1.452       .  S
C695        C698   1.411       .  A
C695        C702   1.412       .  A
C696        N713   1.157       .  T
C697        N715   1.157       .  T
C698        C699   1.409       .  A
C698        C703   1.450       .  S
C699        C700   1.410       .  A
C699        C705   1.449       .  S
C700        C701   1.410       .  A
C701        C702   1.409       .  A
C701        C704   1.451       .  S
C702        C706   1.450       .  S
C703        N710   1.157       .  T
C704        N711   1.158       .  T
C705        N709   1.156       .  T
C706        N712   1.157       .  T
C707        N716   1.158       .  T
C708        N714   1.157       .  T
C717        C718   1.406       .  A
C717        C722   1.409       .  A
C717        C735   1.452       .  S
C718        C723   1.491       .  S
C718        C719   1.409       .  A
C719        C720   1.410       .  A
C719        C724   1.451       .  S
C720        C721   1.417       .  A
C720        C736   1.451       .  S
C721        C722   1.417       .  A
C722        C725   1.448       .  S
C723        C726   1.408       .  A
C723        C730   1.409       .  A
C724        N741   1.157       .  T
C725        N743   1.156       .  T
C726        C727   1.407       .  A
C726        C731   1.453       .  S
C727        C728   1.416       .  A
C727        C733   1.450       .  S
C728        C729   1.414       .  A
C729        C730   1.412       .  A
C729        C732   1.450       .  S
C730        C734   1.449       .  S
C731        N738   1.157       .  T
C732        N739   1.157       .  T
C733        N737   1.157       .  T
C734        N740   1.157       .  T
C735        N744   1.157       .  T
C736        N742   1.157       .  T
C745        C746   1.410       .  A
C745        C750   1.411       .  A
C745        C763   1.451       .  S
C746        C751   1.495       .  S
C746        C747   1.409       .  A
C747        C748   1.408       .  A
C747        C752   1.452       .  S
C748        C749   1.419       .  A
C748        C764   1.452       .  S
C749        C750   1.418       .  A
C750        C753   1.451       .  S
C751        C754   1.411       .  A
C751        C758   1.407       .  A
C752        N769   1.157       .  T
C753        N771   1.157       .  T
C754        C755   1.413       .  A
C754        C759   1.452       .  S
C755        C756   1.421       .  A
C755        C761   1.451       .  S
C756        C757   1.423       .  A
C757        C758   1.407       .  A
C757        C760   1.453       .  S
C758        C762   1.453       .  S
C759        N766   1.157       .  T
C760        N767   1.157       .  T
C761        N765   1.158       .  T
C762        N768   1.157       .  T
C763        N772   1.157       .  T
C764        N770   1.158       .  T
C773        C774   1.411       .  A
C773        C778   1.412       .  A
C773        C791   1.450       .  S
C774        C779   1.497       .  S
C774        C775   1.411       .  A
C775        C776   1.410       .  A
C775        C780   1.450       .  S
C776        C777   1.412       .  A
C776        C792   1.451       .  S
C777        C778   1.413       .  A
C778        C781   1.451       .  S
C779        C782   1.410       .  A
C779        C786   1.408       .  A
C780        N797   1.157       .  T
C781        N799   1.157       .  T
C782        C783   1.412       .  A
C782        C787   1.451       .  S
C783        C784   1.418       .  A
C783        C789   1.448       .  S
C784        C785   1.422       .  A
C785        C786   1.411       .  A
C785        C788   1.452       .  S
C786        C790   1.452       .  S
C787        N794   1.157       .  T
C788        N795   1.158       .  T
C789        N793   1.156       .  T
C790        N796   1.157       .  T
C791        N800   1.157       .  T
C792        N798   1.157       .  T
C801        C802   1.411       .  A
C801        C806   1.412       .  A
C801        C819   1.451       .  S
C802        C807   1.500       .  S
C802        C803   1.411       .  A
C803        C804   1.412       .  A
C803        C808   1.448       .  S
C804        C805   1.412       .  A
C804        C820   1.450       .  S
C805        C806   1.417       .  A
C806        C809   1.449       .  S
C807        C810   1.412       .  A
C807        C814   1.410       .  A
C808        N825   1.157       .  T
C809        N827   1.157       .  T
C810        C811   1.419       .  A
C810        C815   1.448       .  S
C811        C812   1.415       .  A
C811        C817   1.449       .  S
C812        C813   1.418       .  A
C813        C814   1.406       .  A
C813        C816   1.453       .  S
C814        C818   1.453       .  S
C815        N822   1.157       .  T
C816        N823   1.157       .  T
C817        N821   1.157       .  T
C818        N824   1.157       .  T
C819        N828   1.157       .  T
C820        N826   1.157       .  T
C829        C830   1.410       .  A
C829        C834   1.411       .  A
C829        C847   1.451       .  S
C830        C835   1.497       .  S
C830        C831   1.409       .  A
C831        C832   1.412       .  A
C831        C836   1.451       .  S
C832        C833   1.417       .  A
C832        C848   1.450       .  S
C833        C834   1.418       .  A
C834        C837   1.452       .  S
C835        C838   1.409       .  A
C835        C842   1.410       .  A
C836        N853   1.157       .  T
C837        N855   1.157       .  T
C838        C839   1.414       .  A
C838        C843   1.450       .  S
C839        C840   1.418       .  A
C839        C845   1.451       .  S
C840        C841   1.417       .  A
C841        C842   1.409       .  A
C841        C844   1.451       .  S
C842        C846   1.452       .  S
C843        N850   1.157       .  T
C844        N851   1.157       .  T
C845        N849   1.157       .  T
C846        N852   1.157       .  T
C847        N856   1.157       .  T
C848        N854   1.157       .  T
C857        C858   1.409   1_556  A
C857        C862   1.413       .  A
C857        C875   1.450       .  S
C858        C863   1.497       .  S
C858        C859   1.411       .  A
C859        C860   1.410   1_554  A
C859        C864   1.451       .  S
C860        C861   1.413       .  A
C860        C876   1.451       .  S
C861        C862   1.419       .  A
C862        C865   1.452       .  S
C863        C866   1.410       .  A
C863        C870   1.412       .  A
C864        N881   1.157       .  T
C865        N883   1.157       .  T
C866        C867   1.412       .  A
C866        C871   1.450       .  S
C867        C868   1.413       .  A
C867        C873   1.449       .  S
C868        C869   1.412       .  A
C869        C870   1.411       .  A
C869        C872   1.451       .  S
C870        C874   1.450       .  S
C871        N878   1.157       .  T
C872        N879   1.157       .  T
C873        N877   1.157       .  T
C874        N880   1.157       .  T
C875        N884   1.157       .  T
C876        N882   1.158       .  T
C885        C886   1.411       .  A
C885        C890   1.407       .  A
C885        C903   1.453       .  S
C886        C891   1.496       .  S
C886        C887   1.412       .  A
C887        C888   1.412       .  A
C887        C892   1.450       .  S
C888        C889   1.414       .  A
C888        C904   1.450       .  S
C889        C890   1.414       .  A
C890        C893   1.451       .  S
C891        C894   1.407       .  A
C891        C898   1.412       .  A
C892        N909   1.157       .  T
C893        N911   1.157       .  T
C894        C895   1.409       .  A
C894        C899   1.452       .  S
C895        C896   1.421       .  A
C895        C901   1.450       .  S
C896        C897   1.415       .  A
C897        C898   1.412       .  A
C897        C900   1.449       .  S
C898        C902   1.451       .  S
C899        N906   1.157       .  T
C900        N907   1.157       .  T
C901        N905   1.157       .  T
C902        N908   1.157       .  T
C903        N912   1.157       .  T
C904        N910   1.157       .  T
C913        C914   1.412       .  A
C913        C918   1.411       .  A
C913        C931   1.450       .  S
C914        C919   1.499       .  S
C914        C915   1.411       .  A
C915        C916   1.411       .  A
C915        C920   1.450       .  S
C916        C917   1.414   1_455  A
C916        C932   1.451       .  S
C917        C918   1.412   1_655  A
C918        C921   1.451   1_455  S
C919        C922   1.410       .  A
C919        C926   1.405       .  A
C920        N937   1.157       .  T
C921        N939   1.157       .  T
C922        C923   1.414       .  A
C922        C927   1.451       .  S
C923        C924   1.423       .  A
C923        C929   1.450       .  S
C924        C925   1.430       .  A
C925        C926   1.413       .  A
C925        C928   1.452       .  S
C926        C930   1.452       .  S
C927        N934   1.157   1_455  T
C928        N935   1.158       .  T
C929        N933   1.157   1_545  T
C930        N936   1.157       .  T
C931        N940   1.157       .  T
C932        N938   1.157       .  T
C941        C942   1.404       .  A
C941        C946   1.408       .  A
C941        C959   1.453       .  S
C942        C947   1.492       .  S
C942        C943   1.409       .  A
C943        C944   1.411       .  A
C943        C948   1.452       .  S
C944        C945   1.421       .  A
C944        C960   1.451       .  S
C945        C946   1.429       .  A
C946        C949   1.453       .  S
C947        C950   1.407       .  A
C947        C954   1.410       .  A
C948        N965   1.157       .  T
C949        N967   1.157       .  T
C950        C951   1.408       .  A
C950        C955   1.452       .  S
C951        C952   1.421       .  A
C951        C957   1.452       .  S
C952        C953   1.419       .  A
C953        C954   1.409       .  A
C953        C956   1.451       .  S
C954        C958   1.452       .  S
C955        N962   1.157       .  T
C956        N963   1.158   1_545  T
C957        N961   1.157       .  T
C958        N964   1.157       .  T
C959        N968   1.157       .  T
C960        N966   1.158       .  T
C969        C970   1.415       .  A
C969        C974   1.413       .  A
C969        C987   1.450       .  S
C970        C975   1.500       .  S
C970        C971   1.414       .  A
C971        C972   1.409   1_545  A
C971        C976   1.451       .  S
C972        C973   1.409       .  A
C972        C988   1.450       .  S
C973        C974   1.410   1_565  A
C974        C977   1.450       .  S
C975        C978   1.409   1_545  A
C975        C982   1.412       .  A
C976        N993   1.158   1_545  T
C977        N995   1.158       .  T
C978        C979   1.406       .  A
C978        C983   1.455       .  S
C979        C980   1.424       .  A
C979        C985   1.454       .  S
C980        C981   1.417   1_565  A
C981        C982   1.418       .  A
C981        C984   1.449       .  S
C982        C986   1.449       .  S
C983        N990   1.158       .  T
C984        N991   1.158       .  T
C985        N989   1.157       .  T
C986        N992   1.157       .  T
C987        N996   1.157       .  T
C988        N994   1.157       .  T
C997        C998   1.413       .  A
C997       C1002   1.410       .  A
C997       C1015   1.451       .  S
C998       C1003   1.500       .  S
C998        C999   1.411       .  A
C999       C1000   1.414       .  A
C999       C1004   1.450       .  S
C1000      C1001   1.417       .  A
C1000      C1016   1.451       .  S
C1001      C1002   1.414       .  A
C1002      C1005   1.452       .  S
C1003      C1006   1.411       .  A
C1003      C1010   1.412       .  A
C1004      N1021   1.157       .  T
C1005      N1023   1.157       .  T
C1006      C1007   1.412       .  A
C1006      C1011   1.450       .  S
C1007      C1008   1.416       .  A
C1007      C1013   1.451       .  S
C1008      C1009   1.415       .  A
C1009      C1010   1.410       .  A
C1009      C1012   1.452       .  S
C1010      C1014   1.450       .  S
C1011      N1018   1.157       .  T
C1012      N1019   1.158   1_655  T
C1013      N1017   1.157       .  T
C1014      N1020   1.157       .  T
C1015      N1024   1.157       .  T
C1016      N1022   1.157       .  T
C1025      C1026   1.409       .  A
C1025      C1030   1.408       .  A
C1025      C1043   1.451       .  S
C1026      C1031   1.493       .  S
C1026      C1027   1.410       .  A
C1027      C1028   1.411       .  A
C1027      C1032   1.451       .  S
C1028      C1029   1.415       .  A
C1028      C1044   1.450       .  S
C1029      C1030   1.414       .  A
C1030      C1033   1.451       .  S
C1031      C1034   1.406       .  A
C1031      C1038   1.407       .  A
C1032      N1049   1.157       .  T
C1033      N1051   1.157       .  T
C1034      C1035   1.409       .  A
C1034      C1039   1.452       .  S
C1035      C1036   1.427       .  A
C1035      C1041   1.453       .  S
C1036      C1037   1.420       .  A
C1037      C1038   1.411       .  A
C1037      C1040   1.446       .  S
C1038      C1042   1.452       .  S
C1039      N1046   1.158       .  T
C1040      N1047   1.156       .  T
C1041      N1045   1.157       .  T
C1042      N1048   1.157       .  T
C1043      N1052   1.157       .  T
C1044      N1050   1.157       .  T
C1053      C1054   1.409       .  A
C1053      C1058   1.400       .  A
C1053      C1071   1.453       .  S
C1054      C1059   1.488       .  S
C1054      C1055   1.413       .  A
C1055      C1056   1.410       .  A
C1055      C1060   1.450       .  S
C1056      C1057   1.409       .  A
C1056      C1072   1.450       .  S
C1057      C1058   1.413       .  A
C1058      C1061   1.452   1_655  S
C1059      C1062   1.411       .  A
C1059      C1066   1.412       .  A
C1060      N1077   1.157       .  T
C1061      N1079   1.157       .  T
C1062      C1063   1.400   1_565  A
C1062      C1067   1.454       .  S
C1063      C1064   1.412       .  A
C1063      C1069   1.453       .  S
C1064      C1065   1.409   1_545  A
C1065      C1066   1.409       .  A
C1065      C1068   1.450       .  S
C1066      C1070   1.450       .  S
C1067      N1074   1.157   1_565  T
C1068      N1075   1.157       .  T
C1069      N1073   1.158       .  T
C1070      N1076   1.157       .  T
C1071      N1080   1.157       .  T
C1072      N1078   1.157       .  T
C1081      C1082   1.409       .  A
C1081      C1086   1.408       .  A
C1081      C1099   1.451       .  S
C1082      C1087   1.485       .  S
C1082      C1083   1.408       .  A
C1083      C1084   1.405       .  A
C1083      C1088   1.452       .  S
C1084      C1085   1.416       .  A
C1084      C1100   1.452       .  S
C1085      C1086   1.413       .  A
C1086      C1089   1.450       .  S
C1087      C1090   1.406       .  A
C1087      C1094   1.406       .  A
C1088      N1105   1.157       .  T
C1089      N1107   1.157       .  T
C1090      C1091   1.409       .  A
C1090      C1095   1.451       .  S
C1091      C1092   1.419       .  A
C1091      C1097   1.450       .  S
C1092      C1093   1.421       .  A
C1093      C1094   1.405       .  A
C1093      C1096   1.453       .  S
C1094      C1098   1.453       .  S
C1095      N1102   1.157       .  T
C1096      N1103   1.158       .  T
C1097      N1101   1.157       .  T
C1098      N1104   1.157       .  T
C1099      N1108   1.157       .  T
C1100      N1106   1.158       .  T
C1109      C1110   1.409       .  A
C1109      C1114   1.406   1_655  A
C1109      C1127   1.452   1_655  S
C1110      C1115   1.493   1_655  S
C1110      C1111   1.412       .  A
C1111      C1112   1.414       .  A
C1111      C1116   1.448   1_554  S
C1112      C1113   1.409   1_655  A
C1112      C1128   1.448       .  S
C1113      C1114   1.412       .  A
C1114      C1117   1.450       .  S
C1115      C1118   1.410   1_454  A
C1115      C1122   1.411   1_554  A
C1116      N1133   1.157       .  T
C1117      N1135   1.157       .  T
C1118      C1119   1.416       .  A
C1118      C1123   1.448       .  S
C1119      C1120   1.414   1_655  A
C1119      C1125   1.449       .  S
C1120      C1121   1.415       .  A
C1121      C1122   1.405       .  A
C1121      C1124   1.453       .  S
C1122      C1126   1.454   1_556  S
C1123      N1130   1.157   1_556  T
C1124      N1131   1.157       .  T
C1125      N1129   1.157       .  T
C1126      N1132   1.158       .  T
C1127      N1136   1.157       .  T
C1128      N1134   1.157       .  T
C1137      C1138   1.410       .  A
C1137      C1142   1.411       .  A
C1137      C1155   1.450       .  S
C1138      C1143   1.496       .  S
C1138      C1139   1.412       .  A
C1139      C1140   1.411       .  A
C1139      C1144   1.450       .  S
C1140      C1141   1.411       .  A
C1140      C1156   1.451       .  S
C1141      C1142   1.412       .  A
C1142      C1145   1.450       .  S
C1143      C1146   1.409       .  A
C1143      C1150   1.412       .  A
C1144      N1161   1.157       .  T
C1145      N1163   1.157   1_455  T
C1146      C1147   1.411       .  A
C1146      C1151   1.451       .  S
C1147      C1148   1.418       .  A
C1147      C1153   1.450       .  S
C1148      C1149   1.413       .  A
C1149      C1150   1.411       .  A
C1149      C1152   1.451       .  S
C1150      C1154   1.450       .  S
C1151      N1158   1.157       .  T
C1152      N1159   1.157       .  T
C1153      N1157   1.158       .  T
C1154      N1160   1.157       .  T
C1155      N1164   1.157       .  T
C1156      N1162   1.157       .  T
C1165      C1166   1.413       .  A
C1165      C1170   1.415       .  A
C1165      C1183   1.450       .  S
C1166      C1171   1.499       .  S
C1166      C1167   1.408       .  A
C1167      C1168   1.409       .  A
C1167      C1172   1.450       .  S
C1168      C1169   1.415       .  A
C1168      C1184   1.451       .  S
C1169      C1170   1.415       .  A
C1170      C1173   1.451       .  S
C1171      C1174   1.406   1_556  A
C1171      C1178   1.409       .  A
C1172      N1189   1.157       .  T
C1173      N1191   1.157       .  T
C1174      C1175   1.413       .  A
C1174      C1179   1.452       .  S
C1175      C1176   1.426       .  A
C1175      C1181   1.449       .  S
C1176      C1177   1.421       .  A
C1177      C1178   1.413   1_554  A
C1177      C1180   1.449       .  S
C1178      C1182   1.451       .  S
C1179      N1186   1.157       .  T
C1180      N1187   1.156       .  T
C1181      N1185   1.157       .  T
C1182      N1188   1.157       .  T
C1183      N1192   1.157       .  T
C1184      N1190   1.157   1_565  T
C1193      C1194   1.410       .  A
C1193      C1198   1.411       .  A
C1193      C1211   1.453       .  S
C1194      C1199   1.499       .  S
C1194      C1195   1.409       .  A
C1195      C1196   1.412       .  A
C1195      C1200   1.451       .  S
C1196      C1197   1.422       .  A
C1196      C1212   1.452       .  S
C1197      C1198   1.422       .  A
C1198      C1201   1.452       .  S
C1199      C1202   1.411       .  A
C1199      C1206   1.407       .  A
C1200      N1217   1.157       .  T
C1201      N1219   1.158       .  T
C1202      C1203   1.415       .  A
C1202      C1207   1.451       .  S
C1203      C1204   1.419       .  A
C1203      C1209   1.450       .  S
C1204      C1205   1.426       .  A
C1205      C1206   1.409       .  A
C1205      C1208   1.452       .  S
C1206      C1210   1.453       .  S
C1207      N1214   1.157       .  T
C1208      N1215   1.157       .  T
C1209      N1213   1.158   1_455  T
C1210      N1216   1.157       .  T
C1211      N1220   1.157   1_455  T
C1212      N1218   1.157       .  T
C1221      C1222   1.410       .  A
C1221      C1226   1.410       .  A
C1221      C1239   1.452       .  S
C1222      C1227   1.496       .  S
C1222      C1223   1.412       .  A
C1223      C1224   1.412       .  A
C1223      C1228   1.450       .  S
C1224      C1225   1.411       .  A
C1224      C1240   1.451       .  S
C1225      C1226   1.414       .  A
C1226      C1229   1.450       .  S
C1227      C1230   1.412       .  A
C1227      C1234   1.412       .  A
C1228      N1245   1.157       .  T
C1229      N1247   1.157       .  T
C1230      C1231   1.413       .  A
C1230      C1235   1.450       .  S
C1231      C1232   1.412       .  A
C1231      C1237   1.450       .  S
C1232      C1233   1.412       .  A
C1233      C1234   1.407       .  A
C1233      C1236   1.453       .  S
C1234      C1238   1.451       .  S
C1235      N1242   1.157       .  T
C1236      N1243   1.157       .  T
C1237      N1241   1.157   1_455  T
C1238      N1244   1.157       .  T
C1239      N1248   1.157       .  T
C1240      N1246   1.157       .  T
C1249      C1250   1.413       .  A
C1249      C1254   1.411       .  A
C1249      C1267   1.450       .  S
C1250      C1255   1.494       .  S
C1250      C1251   1.408       .  A
C1251      C1252   1.410   1_554  A
C1251      C1256   1.451       .  S
C1252      C1253   1.415       .  A
C1252      C1268   1.451       .  S
C1253      C1254   1.409   1_556  A
C1254      C1257   1.450       .  S
C1255      C1258   1.408       .  A
C1255      C1262   1.413       .  A
C1256      N1273   1.157       .  T
C1257      N1275   1.157       .  T
C1258      C1259   1.409       .  A
C1258      C1263   1.450       .  S
C1259      C1260   1.414       .  A
C1259      C1265   1.450       .  S
C1260      C1261   1.411       .  A
C1261      C1262   1.411       .  A
C1261      C1264   1.451       .  S
C1262      C1266   1.450       .  S
C1263      N1270   1.157       .  T
C1264      N1271   1.157       .  T
C1265      N1269   1.157       .  T
C1266      N1272   1.157       .  T
C1267      N1276   1.157       .  T
C1268      N1274   1.157       .  T
C1277      C1278   1.408       .  A
C1277      C1282   1.405       .  A
C1277      C1295   1.451       .  S
C1278      C1283   1.483       .  S
C1278      C1279   1.408       .  A
C1279      C1280   1.405       .  A
C1279      C1284   1.451       .  S
C1280      C1281   1.414       .  A
C1280      C1296   1.452       .  S
C1281      C1282   1.415       .  A
C1282      C1285   1.452       .  S
C1283      C1286   1.406       .  A
C1283      C1290   1.408       .  A
C1284      N1301   1.157       .  T
C1285      N1303   1.157       .  T
C1286      C1287   1.406       .  A
C1286      C1291   1.452       .  S
C1287      C1288   1.418       .  A
C1287      C1293   1.450       .  S
C1288      C1289   1.418       .  A
C1289      C1290   1.406       .  A
C1289      C1292   1.452       .  S
C1290      C1294   1.452       .  S
C1291      N1298   1.157       .  T
C1292      N1299   1.157       .  T
C1293      N1297   1.157       .  T
C1294      N1300   1.157       .  T
C1295      N1304   1.157       .  T
C1296      N1302   1.158       .  T
C1305      C1306   1.408       .  A
C1305      C1310   1.408       .  A
C1305      C1323   1.450       .  S
C1306      C1311   1.485       .  S
C1306      C1307   1.409       .  A
C1307      C1308   1.404       .  A
C1307      C1312   1.452       .  S
C1308      C1309   1.413       .  A
C1308      C1324   1.453       .  S
C1309      C1310   1.416       .  A
C1310      C1313   1.451       .  S
C1311      C1314   1.403       .  A
C1311      C1318   1.409       .  A
C1312      N1329   1.157       .  T
C1313      N1331   1.157       .  T
C1314      C1315   1.406       .  A
C1314      C1319   1.453       .  S
C1315      C1316   1.427       .  A
C1315      C1321   1.453       .  S
C1316      C1317   1.416       .  A
C1317      C1318   1.409       .  A
C1317      C1320   1.451       .  S
C1318      C1322   1.450       .  S
C1319      N1326   1.157       .  T
C1320      N1327   1.157       .  T
C1321      N1325   1.158       .  T
C1322      N1328   1.157       .  T
C1323      N1332   1.157       .  T
C1324      N1330   1.157       .  T
C1333      C1334   1.407       .  A
C1333      C1338   1.406       .  A
C1333      C1351   1.452       .  S
C1334      C1339   1.484       .  S
C1334      C1335   1.409       .  A
C1335      C1336   1.406       .  A
C1335      C1340   1.451       .  S
C1336      C1337   1.416       .  A
C1336      C1352   1.452       .  S
C1337      C1338   1.416       .  A
C1338      C1341   1.449       .  S
C1339      C1342   1.408       .  A
C1339      C1346   1.408       .  A
C1340      N1357   1.158       .  T
C1341      N1359   1.157       .  T
C1342      C1343   1.404       .  A
C1342      C1347   1.453       .  S
C1343      C1344   1.415       .  A
C1343      C1349   1.451       .  S
C1344      C1345   1.413       .  A
C1345      C1346   1.407       .  A
C1345      C1348   1.451       .  S
C1346      C1350   1.451       .  S
C1347      N1354   1.157       .  T
C1348      N1355   1.157       .  T
C1349      N1353   1.157       .  T
C1350      N1356   1.157       .  T
C1351      N1360   1.157       .  T
C1352      N1358   1.157       .  T
C1361      C1362   1.408       .  A
C1361      C1366   1.416       .  A
C1361      C1379   1.450       .  S
C1362      C1367   1.496       .  S
C1362      C1363   1.409       .  A
C1363      C1364   1.408       .  A
C1363      C1368   1.455       .  S
C1364      C1365   1.424       .  A
C1364      C1380   1.453       .  S
C1365      C1366   1.422       .  A
C1366      C1369   1.450       .  S
C1367      C1370   1.407       .  A
C1367      C1374   1.410       .  A
C1368      N1385   1.158       .  T
C1369      N1387   1.158       .  T
C1370      C1371   1.408       .  A
C1370      C1375   1.452       .  S
C1371      C1372   1.417       .  A
C1371      C1377   1.450       .  S
C1372      C1373   1.415       .  A
C1373      C1374   1.414       .  A
C1373      C1376   1.450       .  S
C1374      C1378   1.449       .  S
C1375      N1382   1.157       .  T
C1376      N1383   1.157       .  T
C1377      N1381   1.156       .  T
C1378      N1384   1.157       .  T
C1379      N1388   1.157       .  T
C1380      N1386   1.157       .  T
C1389      C1390   1.406       .  A
C1389      C1394   1.413       .  A
C1389      C1407   1.452       .  S
C1390      C1395   1.504       .  S
C1390      C1391   1.411       .  A
C1391      C1392   1.418       .  A
C1391      C1396   1.450       .  S
C1392      C1393   1.420       .  A
C1392      C1408   1.450       .  S
C1393      C1394   1.430       .  A
C1394      C1397   1.452       .  S
C1395      C1398   1.412       .  A
C1395      C1402   1.411       .  A
C1396      N1413   1.157       .  T
C1397      N1415   1.158       .  T
C1398      C1399   1.413       .  A
C1398      C1403   1.450       .  S
C1399      C1400   1.415       .  A
C1399      C1405   1.451       .  S
C1400      C1401   1.416       .  A
C1401      C1402   1.415       .  A
C1401      C1404   1.450       .  S
C1402      C1406   1.450       .  S
C1403      N1410   1.157       .  T
C1404      N1411   1.157       .  T
C1405      N1409   1.158       .  T
C1406      N1412   1.157       .  T
C1407      N1416   1.157       .  T
C1408      N1414   1.158       .  T
C1417      C1418   1.412       .  A
C1417      C1422   1.409       .  A
C1417      C1435   1.451       .  S
C1418      C1423   1.496       .  S
C1418      C1419   1.412       .  A
C1419      C1420   1.412       .  A
C1419      C1424   1.450       .  S
C1420      C1421   1.411       .  A
C1420      C1436   1.450       .  S
C1421      C1422   1.412       .  A
C1422      C1425   1.452       .  S
C1423      C1426   1.410   1_556  A
C1423      C1430   1.411   1_556  A
C1424      N1441   1.157       .  T
C1425      N1443   1.157       .  T
C1426      C1427   1.412       .  A
C1426      C1431   1.450       .  S
C1427      C1428   1.416       .  A
C1427      C1433   1.452       .  S
C1428      C1429   1.414       .  A
C1429      C1430   1.411       .  A
C1429      C1432   1.451       .  S
C1430      C1434   1.451   1_554  S
C1431      N1438   1.157       .  T
C1432      N1439   1.158       .  T
C1433      N1437   1.157       .  T
C1434      N1440   1.157       .  T
C1435      N1444   1.157       .  T
C1436      N1442   1.157       .  T
C1445      C1446   1.413       .  A
C1445      C1450   1.408       .  A
C1445      C1463   1.451       .  S
C1446      C1451   1.491       .  S
C1446      C1447   1.410       .  A
C1447      C1448   1.409       .  A
C1447      C1452   1.450       .  S
C1448      C1449   1.412       .  A
C1448      C1464   1.451       .  S
C1449      C1450   1.409       .  A
C1450      C1453   1.451       .  S
C1451      C1454   1.410       .  A
C1451      C1458   1.406       .  A
C1452      N1469   1.157       .  T
C1453      N1471   1.157       .  T
C1454      C1455   1.411       .  A
C1454      C1459   1.451       .  S
C1455      C1456   1.415       .  A
C1455      C1461   1.450       .  S
C1456      C1457   1.419       .  A
C1457      C1458   1.408       .  A
C1457      C1460   1.450       .  S
C1458      C1462   1.452       .  S
C1459      N1466   1.157       .  T
C1460      N1467   1.156       .  T
C1461      N1465   1.157       .  T
C1462      N1468   1.157       .  T
C1463      N1472   1.157       .  T
C1464      N1470   1.157       .  T
C1473      C1474   1.410       .  A
C1473      C1478   1.410       .  A
C1473      C1491   1.451       .  S
C1474      C1479   1.498       .  S
C1474      C1475   1.410       .  A
C1475      C1476   1.413       .  A
C1475      C1480   1.451       .  S
C1476      C1477   1.417       .  A
C1476      C1492   1.451       .  S
C1477      C1478   1.415       .  A
C1478      C1481   1.451       .  S
C1479      C1482   1.407       .  A
C1479      C1486   1.409       .  A
C1480      N1497   1.157       .  T
C1481      N1499   1.157       .  T
C1482      C1483   1.413       .  A
C1482      C1487   1.451       .  S
C1483      C1484   1.425       .  A
C1483      C1489   1.453       .  S
C1484      C1485   1.421       .  A
C1485      C1486   1.412       .  A
C1485      C1488   1.451       .  S
C1486      C1490   1.452       .  S
C1487      N1494   1.158       .  T
C1488      N1495   1.158       .  T
C1489      N1493   1.157       .  T
C1490      N1496   1.157       .  T
C1491      N1500   1.157       .  T
C1492      N1498   1.157       .  T
C1501      C1502   1.411       .  A
C1501      C1506   1.409       .  A
C1501      C1519   1.450       .  S
C1502      C1507   1.492       .  S
C1502      C1503   1.412       .  A
C1503      C1504   1.407       .  A
C1503      C1508   1.451       .  S
C1504      C1505   1.409       .  A
C1504      C1520   1.451       .  S
C1505      C1506   1.411       .  A
C1506      C1509   1.452       .  S
C1507      C1510   1.405       .  A
C1507      C1514   1.410       .  A
C1508      N1525   1.157       .  T
C1509      N1527   1.157       .  T
C1510      C1511   1.406       .  A
C1510      C1515   1.454       .  S
C1511      C1512   1.426       .  A
C1511      C1517   1.453       .  S
C1512      C1513   1.417       .  A
C1513      C1514   1.413       .  A
C1513      C1516   1.450       .  S
C1514      C1518   1.450       .  S
C1515      N1522   1.157       .  T
C1516      N1523   1.157       .  T
C1517      N1521   1.158       .  T
C1518      N1524   1.157       .  T
C1519      N1528   1.157       .  T
C1520      N1526   1.157       .  T
C1529      C1530   1.410       .  A
C1529      C1534   1.406       .  A
C1529      C1547   1.452       .  S
C1530      C1535   1.494       .  S
C1530      C1531   1.414       .  A
C1531      C1532   1.411       .  A
C1531      C1536   1.450       .  S
C1532      C1533   1.409   1_565  A
C1532      C1548   1.450   1_565  S
C1533      C1534   1.413   1_545  A
C1534      C1537   1.451   1_565  S
C1535      C1538   1.411       .  A
C1535      C1542   1.410       .  A
C1536      N1553   1.157       .  T
C1537      N1555   1.157       .  T
C1538      C1539   1.408       .  A
C1538      C1543   1.452       .  S
C1539      C1540   1.419       .  A
C1539      C1545   1.453       .  S
C1540      C1541   1.417       .  A
C1541      C1542   1.410       .  A
C1541      C1544   1.451       .  S
C1542      C1546   1.451       .  S
C1543      N1550   1.157   1_565  T
C1544      N1551   1.158       .  T
C1545      N1549   1.157       .  T
C1546      N1552   1.157       .  T
C1547      N1556   1.157       .  T
C1548      N1554   1.157       .  T
C1557      C1558   1.408       .  A
C1557      C1562   1.406       .  A
C1557      C1575   1.452       .  S
C1558      C1563   1.486       .  S
C1558      C1559   1.410       .  A
C1559      C1560   1.405       .  A
C1559      C1564   1.452       .  S
C1560      C1561   1.414       .  A
C1560      C1576   1.452       .  S
C1561      C1562   1.416       .  A
C1562      C1565   1.451       .  S
C1563      C1566   1.409       .  A
C1563      C1570   1.408       .  A
C1564      N1581   1.157       .  T
C1565      N1583   1.158       .  T
C1566      C1567   1.407       .  A
C1566      C1571   1.451       .  S
C1567      C1568   1.414       .  A
C1567      C1573   1.451       .  S
C1568      C1569   1.417       .  A
C1569      C1570   1.405       .  A
C1569      C1572   1.452       .  S
C1570      C1574   1.453       .  S
C1571      N1578   1.157       .  T
C1572      N1579   1.157       .  T
C1573      N1577   1.157       .  T
C1574      N1580   1.158       .  T
C1575      N1584   1.157       .  T
C1576      N1582   1.157       .  T
C1585      C1586   1.406       .  A
C1585      C1590   1.404       .  A
C1585      C1603   1.456       .  S
C1586      C1591   1.496       .  S
C1586      C1587   1.410       .  A
C1587      C1588   1.419       .  A
C1587      C1592   1.449       .  S
C1588      C1589   1.419       .  A
C1588      C1604   1.449       .  S
C1589      C1590   1.429       .  A
C1590      C1593   1.455       .  S
C1591      C1594   1.413       .  A
C1591      C1598   1.411   1_554  A
C1592      N1609   1.157       .  T
C1593      N1611   1.158       .  T
C1594      C1595   1.413   1_554  A
C1594      C1599   1.449       .  S
C1595      C1596   1.410       .  A
C1595      C1601   1.450       .  S
C1596      C1597   1.413       .  A
C1597      C1598   1.408       .  A
C1597      C1600   1.451       .  S
C1598      C1602   1.452       .  S
C1599      N1606   1.157       .  T
C1600      N1607   1.157       .  T
C1601      N1605   1.157       .  T
C1602      N1608   1.157       .  T
C1603      N1612   1.158       .  T
C1604      N1610   1.157       .  T
C1613      C1614   1.409       .  A
C1613      C1618   1.408       .  A
C1613      C1631   1.451       .  S
C1614      C1619   1.492       .  S
C1614      C1615   1.410       .  A
C1615      C1616   1.410       .  A
C1615      C1620   1.451       .  S
C1616      C1617   1.415       .  A
C1616      C1632   1.451       .  S
C1617      C1618   1.415       .  A
C1618      C1621   1.451       .  S
C1619      C1622   1.406       .  A
C1619      C1626   1.409       .  A
C1620      N1637   1.157       .  T
C1621      N1639   1.157       .  T
C1622      C1623   1.407       .  A
C1622      C1627   1.452       .  S
C1623      C1624   1.420       .  A
C1623      C1629   1.448       .  S
C1624      C1625   1.421       .  A
C1625      C1626   1.411       .  A
C1625      C1628   1.452       .  S
C1626      C1630   1.451       .  S
C1627      N1634   1.157       .  T
C1628      N1635   1.157       .  T
C1629      N1633   1.156       .  T
C1630      N1636   1.157       .  T
C1631      N1640   1.157       .  T
C1632      N1638   1.157       .  T
C1641      C1642   1.416       .  A
C1641      C1646   1.411       .  A
C1641      C1659   1.450       .  S
C1642      C1647   1.495       .  S
C1642      C1643   1.412       .  A
C1643      C1644   1.403       .  A
C1643      C1648   1.453       .  S
C1644      C1645   1.412       .  A
C1644      C1660   1.452       .  S
C1645      C1646   1.408       .  A
C1646      C1649   1.450       .  S
C1647      C1650   1.415       .  A
C1647      C1654   1.415       .  A
C1648      N1665   1.157       .  T
C1649      N1667   1.157       .  T
C1650      C1651   1.404       .  A
C1650      C1655   1.452       .  S
C1651      C1652   1.409       .  A
C1651      C1657   1.451       .  S
C1652      C1653   1.408       .  A
C1653      C1654   1.409       .  A
C1653      C1656   1.451       .  S
C1654      C1658   1.450       .  S
C1655      N1662   1.157       .  T
C1656      N1663   1.157       .  T
C1657      N1661   1.157       .  T
C1658      N1664   1.157       .  T
C1659      N1668   1.157       .  T
C1660      N1666   1.157       .  T
C1669      C1670   1.411       .  A
C1669      C1674   1.410   1_554  A
C1669      C1687   1.450       .  S
C1670      C1675   1.486       .  S
C1670      C1671   1.407       .  A
C1671      C1672   1.403   1_554  A
C1671      C1676   1.452       .  S
C1672      C1673   1.416       .  A
C1672      C1688   1.453       .  S
C1673      C1674   1.411       .  A
C1674      C1677   1.450       .  S
C1675      C1678   1.408       .  A
C1675      C1682   1.406       .  A
C1676      N1693   1.157       .  T
C1677      N1695   1.157       .  T
C1678      C1679   1.410       .  A
C1678      C1683   1.450       .  S
C1679      C1680   1.416       .  A
C1679      C1685   1.451       .  S
C1680      C1681   1.419       .  A
C1681      C1682   1.405       .  A
C1681      C1684   1.450       .  S
C1682      C1686   1.454       .  S
C1683      N1690   1.157       .  T
C1684      N1691   1.157       .  T
C1685      N1689   1.157   1_565  T
C1686      N1692   1.157       .  T
C1687      N1696   1.157       .  T
C1688      N1694   1.157       .  T
