geometry optimzed in LAMMPS
_audit_creation_date              2020-12-01 
_audit_creation_method            'lammps2cif' 
_symmetry_space_group_name_H-M    'P1' 
_symmetry_Int_Tables_number       1 
_symmetry_cell_setting            triclinic 
loop_ 
_symmetry_equiv_pos_as_xyz 
  x,y,z 
_cell_length_a                    35.34146798 
_cell_length_b                    34.57098544626127 
_cell_length_c                    46.496154902606314 
_cell_angle_alpha                 90.59890282299109 
_cell_angle_beta                  89.54211304759988 
_cell_angle_gamma                 120.82555565762401 
loop_ 
_atom_site_label 
_atom_site_type_symbol 
_atom_site_fract_x 
_atom_site_fract_y 
_atom_site_fract_z 
_atom_site_charge 
Fe1        Fe  0.61930817  0.14907643  0.02606940     1.65800
Fe2        Fe  0.51689140  0.05768904  0.50423848     1.73200
Fe3        Fe  0.61156085  0.06516034  0.47932200     1.54400
O4          O  0.66997238  0.12887154  0.47441835    -0.81900
O5          O  0.52105790  0.00359238  0.51367613    -0.80200
O6          O  0.64994486  0.18011010  0.98932873    -0.84400
O7          O  0.66904068  0.13414725  0.03598601    -0.79200
O8          O  0.58491336  0.07573424  0.44404471    -0.81000
O9          O  0.51953006  0.06839507  0.04826938    -0.83700
C10         C  0.67997493  0.10461694  0.03078458     0.97000
C11         C  0.67469548  0.16773018  0.47714975     1.04500
O12         O  0.58779046  0.09502533  0.00399737    -1.12700
O13         O  0.51042225  0.11107027  0.49487646    -0.75200
O14         O  0.57634239  0.17230964  0.01656859    -0.78600
O15         O  0.65472222  0.06884403  0.01570605    -0.79300
C16         C  0.54164235  0.15711080  0.00135148     0.95900
O17         O  0.58713347  0.11803884  0.06335932    -0.77300
O18         O  0.51525144  0.04920257  0.45854318    -0.82500
C19         C  0.51809530  0.98343716  0.49075142     0.98500
C20         C  0.54468709  0.06189775  0.43870426     1.04500
O21         O  0.55436774  0.99679676  0.47723685    -0.78100
C22         C  0.54731918  0.08784118  0.06835036     1.02800
Fe23       Fe  0.52128071  0.14559410  0.27332522     1.65800
Fe24       Fe  0.52931197  0.05719256  0.25395346     1.73200
Fe25       Fe  0.44228845  0.06495635  0.23106281     1.54400
O26         O  0.40541887  0.06685665  0.26736964    -0.81900
O27         O  0.52169191  0.04721194  0.20888399    -0.80200
O28         O  0.45784622  0.13452268  0.28371557    -0.84400
O29         O  0.52199572  0.17465612  0.23541345    -0.79200
O30         O  0.42833598  0.99549293  0.23081337    -0.81000
O31         O  0.58922799  0.10987760  0.24347937    -0.83700
C32         C  0.48683253  0.16728402  0.22370122     0.97000
C33         C  0.41695885  0.10437838  0.28094116     1.04500
O34         O  0.49766844  0.08929296  0.25310524    -1.12700
O35         O  0.54048418  0.06656358  0.29776727    -0.75200
O36         O  0.52139520  0.11616331  0.31179939    -0.78600
O37         O  0.45238420  0.12851831  0.22303920    -0.79300
C38         C  0.53151037  0.08656095  0.31738303     0.95900
O39         O  0.58750460  0.16708354  0.26394337    -0.77300
O40         O  0.47157040  0.00355996  0.26538225    -0.82500
C41         C  0.50466218  0.05931690  0.18926913     0.98500
C42         C  0.45028581  0.98112529  0.24418111     1.04500
O43         O  0.47649790  0.07069989  0.19465083    -0.78100
C44         C  0.60737606  0.15104180  0.24963737     1.02800
Fe45       Fe  0.53764241  0.35116717  0.01965175     1.65800
Fe46       Fe  0.54300208  0.44471788  0.49896186     1.73200
Fe47       Fe  0.45518970  0.34300423  0.48116409     1.54400
O48         O  0.46358906  0.28705391  0.47575257    -0.81900
O49         O  0.48659417  0.44127738  0.51095232    -0.80200
O50         O  0.53717822  0.31948689  0.98276891    -0.84400
O51         O  0.47487657  0.29774664  0.03148614    -0.79200
O52         O  0.48616839  0.36673461  0.44295117    -0.81000
O53         O  0.55501387  0.45193104  0.04248188    -0.83700
C54         C  0.43446102  0.28701022  0.03000152     0.97000
C55         C  0.49883782  0.28548409  0.47535482     1.04500
O56         O  0.51187373  0.37974578  0.50081364    -1.12700
O57         O  0.60193674  0.45255260  0.48763604    -0.75200
O58         O  0.60316347  0.39801154  0.00923754    -0.78600
O59         O  0.42333435  0.31145776  0.01568019    -0.79300
C60         C  0.62235762  0.43330214  0.99386769     0.95900
O61         O  0.53872461  0.38374198  0.05700573    -0.77300
O62         O  0.53174428  0.43971475  0.45401404    -0.82500
C63         C  0.46198935  0.43628055  0.49051730     0.98500
C64         C  0.51318512  0.40710922  0.43575866     1.04500
O65         O  0.44142189  0.39748042  0.47834422    -0.78100
C66         C  0.54677044  0.42338943  0.06242778     1.02800
Fe67       Fe  0.61324401  0.42667032  0.26884710     1.65800
Fe68       Fe  0.51952563  0.41924569  0.24997690     1.73200
Fe69       Fe  0.61631353  0.51080679  0.23141824     1.54400
O70         O  0.64814107  0.54217388  0.27054550    -0.81900
O71         O  0.52080688  0.43352266  0.20486982    -0.80200
O72         O  0.66443953  0.48986125  0.28187114    -0.84400
O73         O  0.64333916  0.43093966  0.23099199    -0.79200
O74         O  0.56078973  0.52270927  0.23212756    -0.81000
O75         O  0.51210240  0.36059536  0.23626065    -0.83700
C76         C  0.67444840  0.46835488  0.22235194     0.97000
C77         C  0.67359067  0.53067074  0.28284724     1.04500
O78         O  0.58286929  0.45167927  0.25001445    -1.12700
O79         O  0.51448120  0.40251068  0.29359275    -0.75200
O80         O  0.58253282  0.42257662  0.30687905    -0.78600
O81         O  0.67181908  0.50385675  0.22365385    -0.79300
C82         C  0.54331015  0.41195578  0.31302665     0.95900
O83         O  0.56796536  0.36049269  0.25776783    -0.77300
O84         O  0.52443465  0.47565817  0.26535657    -0.82500
C85         C  0.55153849  0.45351356  0.18589965     0.98500
C86         C  0.52399081  0.49850682  0.24524538     1.04500
O87         O  0.59131680  0.48084315  0.19281371    -0.78100
C88         C  0.53291133  0.34160387  0.24299510     1.02800
Fe89       Fe  0.80883447  0.35378972  0.27329115     1.65800
Fe90       Fe  0.89915988  0.44792921  0.25204128     1.73200
Fe91       Fe  0.88130106  0.34590786  0.23016867     1.54400
O92         O  0.88255586  0.31330555  0.26784535    -0.81900
O93         O  0.90621698  0.44557067  0.20727220    -0.80200
O94         O  0.81788508  0.30083397  0.28479839    -0.84400
O95         O  0.77601497  0.32080907  0.23727423    -0.79200
O96         O  0.95033871  0.39890843  0.22778381    -0.81000
O97         O  0.84912519  0.45830626  0.24210984    -0.83700
C98         C  0.77916783  0.28910656  0.22627588     0.97000
C99         C  0.84711110  0.28963534  0.28271829     1.04500
O100        O  0.86303006  0.38278326  0.25195983    -1.12700
O101        O  0.89377406  0.45394012  0.29623399    -0.75200
O102        O  0.84039365  0.38619037  0.31028628    -0.78600
O103        O  0.81609576  0.29086820  0.22489822    -0.79300
C104        C  0.87279353  0.42521033  0.31582718     0.95900
O105        O  0.79116578  0.40075233  0.26290541    -0.77300
O106        O  0.95164482  0.44233172  0.26212656    -0.82500
C107        C  0.89199417  0.41470476  0.18785070     0.98500
C108        C  0.97043125  0.43693035  0.24097959     1.04500
O109        O  0.87571423  0.37319573  0.19320369    -0.78100
C110        C  0.80865303  0.43650920  0.24806481     1.02800
Fe111      Fe  0.82232254  0.44261356  0.02440118     1.65800
Fe112      Fe  0.90037656  0.42487060  0.50172842     1.73200
Fe113      Fe  0.89083694  0.51392959  0.48192962     1.54400
O114        O  0.82639327  0.50167703  0.47524547    -0.81900
O115        O  0.95719641  0.48209636  0.51205934    -0.80200
O116        O  0.78938755  0.43633747  0.98781250    -0.84400
O117        O  0.83126843  0.50566280  0.03208704    -0.79200
O118        O  0.88518206  0.48093276  0.44453627    -0.81000
O119        O  0.89841846  0.42191844  0.04682246    -0.83700
C120        C  0.86053767  0.54698427  0.02957708     0.97000
C121        C  0.78901146  0.46505842  0.47600997     1.04500
O122        O  0.87547634  0.46545204  0.00237191    -1.12700
O123        O  0.84590498  0.36485219  0.49126081    -0.75200
O124        O  0.80275776  0.37555973  0.02019857    -0.78600
O125        O  0.89698911  0.55875337  0.01600032    -0.79300
C126        C  0.81450911  0.35492408  0.00317181     0.95900
O127        O  0.85592210  0.44896527  0.06062813    -0.77300
O128        O  0.90869721  0.43418768  0.45668816    -0.82500
C129        C  0.97723389  0.50925513  0.49218460     0.98500
C130        C  0.89777870  0.45365338  0.43789044     1.04500
O131        O  0.95923870  0.52969946  0.48076659    -0.78100
C132        C  0.88250109  0.43579851  0.06640498     1.02800
Fe133      Fe  0.48887462  0.77261041  0.19333148     1.65800
Fe134      Fe  0.57309895  0.76486346  0.17049756     1.73200
Fe135      Fe  0.56259061  0.85182308  0.14907128     1.54400
O136        O  0.49727693  0.83864650  0.14360676    -0.81900
O137        O  0.62519455  0.82334895  0.18310994    -0.80200
O138        O  0.45717320  0.76695702  0.15607627    -0.84400
O139        O  0.49794339  0.83619868  0.20184045    -0.79200
O140        O  0.55512879  0.81711117  0.11222971    -0.81000
O141        O  0.56348561  0.75114158  0.21497130    -0.83700
C142        C  0.52774793  0.87750870  0.19912133     0.97000
C143        C  0.46011601  0.80194610  0.14582526     1.04500
O144        O  0.54166776  0.79652652  0.17111660    -1.12700
O145        O  0.52038119  0.70568208  0.15797709    -0.75200
O146        O  0.47107617  0.70578229  0.18745439    -0.78600
O147        O  0.56442571  0.88899356  0.18609369    -0.79300
C148        C  0.48217049  0.68687301  0.16834404     0.95900
O149        O  0.52170386  0.77839073  0.23032306    -0.77300
O150        O  0.58416041  0.77546659  0.12501727    -0.82500
C151        C  0.64633995  0.84510961  0.16173267     0.98500
C152        C  0.56944748  0.79121870  0.10601911     1.04500
O153        O  0.63123395  0.86671451  0.14822825    -0.78100
C154        C  0.54811912  0.76469915  0.23520248     1.02800
Fe155      Fe  0.48409853  0.67915590  0.44393782     1.65800
Fe156      Fe  0.56632036  0.77853565  0.42248552     1.73200
Fe157      Fe  0.55898604  0.68200572  0.39844991     1.54400
O158        O  0.56169058  0.64438553  0.43329968    -0.81900
O159        O  0.57887228  0.78222777  0.37734252    -0.80200
O160        O  0.49568421  0.62667744  0.45069795    -0.84400
O161        O  0.45158141  0.65068102  0.40686443    -0.79200
O162        O  0.62682605  0.73946533  0.39894718    -0.81000
O163        O  0.51081857  0.77932015  0.41171722    -0.83700
C164        C  0.45679954  0.62135546  0.39417856     0.97000
C165        C  0.52598548  0.61743584  0.44712367     1.04500
O166        O  0.53714436  0.71341419  0.42209738    -1.12700
O167        O  0.55695259  0.78002275  0.46749536    -0.75200
O168        O  0.51671328  0.70837374  0.48094356    -0.78600
O169        O  0.49483803  0.62589196  0.39140372    -0.79300
C170        C  0.54274775  0.74947422  0.48691659     0.95900
O171        O  0.46323531  0.72468043  0.44010547    -0.77300
O172        O  0.62263894  0.78104585  0.43296862    -0.82500
C173        C  0.56650558  0.75199543  0.35756067     0.98500
C174        C  0.64371722  0.77765215  0.41236218     1.04500
O175        O  0.55090792  0.71082912  0.36333375    -0.78100
C176        C  0.47319857  0.75684370  0.42298282     1.02800
Fe177      Fe  0.20177507  0.49241710  0.44175736     1.65800
Fe178      Fe  0.20410183  0.39968493  0.42635949     1.73200
Fe179      Fe  0.11960950  0.41083408  0.40246872     1.54400
O180        O  0.08539488  0.41244273  0.43952568    -0.81900
O181        O  0.19327208  0.38553037  0.38178200    -0.80200
O182        O  0.13870598  0.48094057  0.45399666    -0.84400
O183        O  0.19950853  0.51483339  0.40207891    -0.79200
O184        O  0.10417768  0.34073161  0.40350717    -0.81000
O185        O  0.26455638  0.45012180  0.41443712    -0.83700
C186        C  0.16428202  0.51420129  0.39804653     0.97000
C187        C  0.09778327  0.45044886  0.45238148     1.04500
O188        O  0.17503844  0.43391318  0.42430867    -1.12700
O189        O  0.21621665  0.41266463  0.47009358    -0.75200
O190        O  0.20481226  0.46871712  0.48120918    -0.78600
O191        O  0.12897375  0.47621825  0.39535092    -0.79300
C192        C  0.21068527  0.43687192  0.48853602     0.95900
O193        O  0.26654468  0.51151298  0.43099261    -0.77300
O194        O  0.14622338  0.34710152  0.43865958    -0.82500
C195        C  0.17652261  0.39667572  0.36146811     0.98500
C196        C  0.12468490  0.32500730  0.41731880     1.04500
O197        O  0.15287698  0.41416708  0.36587106    -0.78100
C198        C  0.28444450  0.49197899  0.41850840     1.02800
Fe199      Fe  0.27800421  0.47448823  0.20229790     1.65800
Fe200      Fe  0.18678234  0.38776571  0.17571691     1.73200
Fe201      Fe  0.28680761  0.40992429  0.15142675     1.54400
O202        O  0.33909551  0.47715331  0.14983593    -0.81900
O203        O  0.19673281  0.33632857  0.18048293    -0.80200
O204        O  0.30922546  0.51471571  0.16850694    -0.84400
O205        O  0.33154748  0.46554462  0.20911643    -0.79200
O206        O  0.26152402  0.42310054  0.11704381    -0.81000
O207        O  0.17976133  0.38498637  0.22041260    -0.83700
C208        C  0.34359042  0.43724753  0.20315405     0.97000
C209        C  0.33890426  0.51360349  0.15385564     1.04500
O210        O  0.25032995  0.42458009  0.17644727    -1.12700
O211        O  0.17410852  0.43815183  0.17276431    -0.75200
O212        O  0.22983917  0.49167244  0.19774181    -0.78600
O213        O  0.31978542  0.40264068  0.18689567    -0.79300
C214        C  0.19359095  0.47655119  0.18437315     0.95900
O215        O  0.24668077  0.43494086  0.23679097    -0.77300
O216        O  0.19023820  0.39060709  0.12979366    -0.82500
C217        C  0.19754569  0.32015741  0.15678243     0.98500
C218        C  0.22160541  0.40854197  0.11110861     1.04500
O219        O  0.23447597  0.34015397  0.14349592    -0.78100
C220        C  0.20728903  0.40322224  0.24089038     1.02800
Fe221      Fe  0.19965688  0.67756776  0.19184143     1.65800
Fe222      Fe  0.21012664  0.77446892  0.17191395     1.73200
Fe223      Fe  0.12353199  0.67515846  0.14875519     1.54400
O224        O  0.12799195  0.61610919  0.14580597    -0.81900
O225        O  0.15410169  0.77536291  0.17952430    -0.80200
O226        O  0.19811621  0.65024301  0.15292338    -0.84400
O227        O  0.13475547  0.62769394  0.20323249    -0.79200
O228        O  0.16113591  0.69998992  0.11322973    -0.81000
O229        O  0.21753659  0.77691093  0.21699493    -0.83700
C230        C  0.09493193  0.61844698  0.20039307     0.97000
C231        C  0.16257964  0.61430610  0.14924037     1.04500
O232        O  0.17706881  0.70971634  0.17223979    -1.12700
O233        O  0.26957745  0.78087938  0.16339167    -0.75200
O234        O  0.26543829  0.72059076  0.18271861    -0.78600
O235        O  0.08563795  0.64398388  0.18563953    -0.79300
C236        C  0.28619060  0.75736450  0.16930972     0.95900
O237        O  0.20310495  0.70844017  0.22993919    -0.77300
O238        O  0.20332710  0.77245558  0.12664176    -0.82500
C239        C  0.13174534  0.77064220  0.15759366     0.98500
C240        C  0.18553132  0.74124295  0.10731527     1.04500
O241        O  0.11316933  0.73217476  0.14471583    -0.78100
C242        C  0.21013978  0.74744947  0.23621004     1.02800
Fe243      Fe  0.26828305  0.77535726  0.45392516     1.65800
Fe244      Fe  0.17910899  0.76378646  0.42341897     1.73200
Fe245      Fe  0.28004889  0.83977448  0.39764450     1.54400
O246        O  0.31336367  0.88871360  0.42965613    -0.81900
O247        O  0.18236589  0.76295488  0.37743886    -0.80200
O248        O  0.32245417  0.84188727  0.45754163    -0.84400
O249        O  0.29824017  0.76025762  0.42256294    -0.79200
O250        O  0.22821150  0.85502274  0.38784214    -0.81000
O251        O  0.16849949  0.70050585  0.42115302    -0.83700
C252        C  0.33276992  0.79258337  0.41238430     0.97000
C253        C  0.33635282  0.88139450  0.44769109     1.04500
O254        O  0.24235203  0.79299285  0.42530198    -1.12700
O255        O  0.17060903  0.76127301  0.46852803    -0.75200
O256        O  0.23830503  0.78944740  0.48607710    -0.78600
O257        O  0.33264414  0.82647975  0.40165775    -0.79300
C258        C  0.19825384  0.77758096  0.48922343     0.95900
O259        O  0.21887693  0.70713740  0.45208635    -0.77300
O260        O  0.18875294  0.82621764  0.42617721    -0.82500
C261        C  0.21343410  0.77271631  0.35912104     0.98500
C262        C  0.19223591  0.84259557  0.40188560     1.04500
O263        O  0.25363777  0.79305635  0.36608834    -0.78100
C264        C  0.18641553  0.68336237  0.43537520     1.02800
Fe265      Fe  0.13565828  0.09637741  0.35353847     1.65800
Fe266      Fe  0.22601855  0.09167225  0.33873095     1.73200
Fe267      Fe  0.21607399  0.17828152  0.31403870     1.54400
O268        O  0.15312228  0.17034404  0.30621387    -0.81900
O269        O  0.28054825  0.15076412  0.34812394    -0.80200
O270        O  0.11066825  0.09815033  0.31491570    -0.84400
O271        O  0.14721715  0.16042377  0.36524767    -0.79200
O272        O  0.21002599  0.14286544  0.27771480    -0.81000
O273        O  0.21608168  0.08303250  0.38348985    -0.83700
C274        C  0.17814221  0.20184883  0.36474620     0.97000
C275        C  0.11546997  0.13424285  0.30528855     1.04500
O276        O  0.19289863  0.12215356  0.33615925    -1.12700
O277        O  0.17583237  0.02948540  0.32963577    -0.75200
O278        O  0.11593286  0.03026710  0.34266991    -0.78600
O279        O  0.21515943  0.21401015  0.35157123    -0.79300
C280        C  0.13486403  0.01062322  0.33191087     0.95900
O281        O  0.15878308  0.09221283  0.39288355    -0.77300
O282        O  0.23406343  0.09745443  0.29306290    -0.82500
C283        C  0.30085511  0.17127788  0.32608937     0.98500
C284        C  0.22231716  0.11470917  0.27302442     1.04500
O285        O  0.28426911  0.19128055  0.31241162    -0.78100
C286        C  0.18936024  0.08583778  0.40098291     1.02800
Fe287      Fe  0.14387864  0.01305868  0.10556908     1.65800
Fe288      Fe  0.23084811  0.11111206  0.08690149     1.73200
Fe289      Fe  0.22142971  0.01334229  0.06322583     1.54400
O290        O  0.22165428  0.97826956  0.10020258    -0.81900
O291        O  0.24050444  0.11287114  0.04135538    -0.80200
O292        O  0.15409044  0.95983552  0.11476756    -0.84400
O293        O  0.11495538  0.98497748  0.06769761    -0.79200
O294        O  0.28993779  0.06899386  0.06343662    -0.81000
O295        O  0.17901250  0.11793059  0.07698429    -0.83700
C296        C  0.12030851  0.95600106  0.05453005     0.97000
C297        C  0.18521912  0.95132777  0.11332324     1.04500
O298        O  0.19872135  0.04613269  0.08529059    -1.12700
O299        O  0.22183180  0.11251998  0.13157890    -0.75200
O300        O  0.17319906  0.04184509  0.14365639    -0.78600
O301        O  0.15734473  0.95787892  0.05477863    -0.79300
C302        C  0.20240948  0.08181854  0.15050027     0.95900
O303        O  0.12357502  0.05926440  0.09854548    -0.77300
O304        O  0.28406397  0.10809978  0.09762973    -0.82500
C305        C  0.22861636  0.08253640  0.02158624     0.98500
C306        C  0.30532923  0.10692272  0.07655479     1.04500
O307        O  0.21663940  0.04188897  0.02670668    -0.78100
C308        C  0.13925519  0.09560073  0.08440658     1.02800
Fe309      Fe  0.95163024  0.81741889  0.35788073     1.65800
Fe310      Fe  0.85532749  0.73829840  0.33421350     1.73200
Fe311      Fe  0.94740575  0.73719015  0.31400450     1.54400
O312        O  0.00245130  0.80136753  0.30566899    -0.81900
O313        O  0.85195129  0.68197920  0.34755572    -0.80200
O314        O  0.98149603  0.84907700  0.32102305    -0.84400
O315        O  0.00214104  0.80472595  0.36542627    -0.79200
O316        O  0.92251316  0.74382733  0.27705934    -0.81000
O317        O  0.85122090  0.74853504  0.37855359    -0.83700
C318        C  0.01101675  0.77358739  0.36238955     0.97000
C319        C  0.00756428  0.84071763  0.30717756     1.04500
O320        O  0.91823379  0.76422602  0.33529018    -1.12700
O321        O  0.85732971  0.79534939  0.32250912    -0.75200
O322        O  0.90838114  0.84108459  0.35302468    -0.78600
O323        O  0.98345209  0.73604186  0.34992538    -0.79300
C324        C  0.87769447  0.83256186  0.33546552     0.95900
O325        O  0.92038818  0.78335551  0.39442184    -0.77300
O326        O  0.85470583  0.72723856  0.28867685    -0.82500
C327        C  0.85194924  0.65747101  0.32797644     0.98500
C328        C  0.88529348  0.73728745  0.27005384     1.04500
O329        O  0.88897860  0.66909581  0.31552761    -0.78100
C330        C  0.87913566  0.75935434  0.39889159     1.02800
Fe331      Fe  0.86875799  0.82725983  0.10325988     1.65800
Fe332      Fe  0.87413010  0.73786758  0.08607876     1.73200
Fe333      Fe  0.78648594  0.74569820  0.06436412     1.54400
O334        O  0.75296470  0.74697511  0.10228688    -0.81900
O335        O  0.86287569  0.72536478  0.04077090    -0.80200
O336        O  0.80632587  0.81602208  0.11556541    -0.84400
O337        O  0.86494311  0.84592984  0.06280602    -0.79200
O338        O  0.77365037  0.67637880  0.06475166    -0.81000
O339        O  0.93317278  0.78963815  0.07324526    -0.83700
C340        C  0.83079213  0.84735085  0.05928678     0.97000
C341        C  0.76560016  0.78522945  0.11505988     1.04500
O342        O  0.84267058  0.76948195  0.08567912    -1.12700
O343        O  0.88755391  0.75006654  0.13003474    -0.75200
O344        O  0.87238231  0.80355146  0.14280035    -0.78600
O345        O  0.79426476  0.81035772  0.05770486    -0.79300
C346        C  0.88066772  0.77288601  0.14896665     0.95900
O347        O  0.93365238  0.84836248  0.09276173    -0.77300
O348        O  0.81726546  0.68540792  0.09938672    -0.82500
C349        C  0.84539765  0.73703347  0.02110233     0.98500
C350        C  0.79625024  0.66273337  0.07821690     1.04500
O351        O  0.81914791  0.75097258  0.02692788    -0.78100
C352        C  0.95141918  0.83135225  0.07753969     1.02800
Fe353      Fe  0.86803162  0.02499644  0.35425257     1.65800
Fe354      Fe  0.87302338  0.12021264  0.33980580     1.73200
Fe355      Fe  0.78740104  0.02073138  0.31507370     1.54400
O356        O  0.79866406  0.96631412  0.30694522    -0.81900
O357        O  0.81556727  0.11233932  0.35291612    -0.80200
O358        O  0.86928300  0.00567736  0.31322560    -0.84400
O359        O  0.80471597  0.96852219  0.36424643    -0.79200
O360        O  0.82053102  0.05171808  0.27850206    -0.81000
O361        O  0.88471027  0.11964149  0.38453483    -0.83700
C362        C  0.76409566  0.95735686  0.36352560     0.97000
C363        C  0.83581145  0.96857328  0.30790950     1.04500
O364        O  0.84220490  0.05570895  0.33745267    -1.12700
O365        O  0.93241795  0.13098985  0.32582111    -0.75200
O366        O  0.93325173  0.07440725  0.34662768    -0.78600
O367        O  0.75233946  0.98308135  0.35152723    -0.79300
C368        C  0.95101048  0.10907128  0.33075104     0.95900
O369        O  0.86741780  0.04901677  0.39418862    -0.77300
O370        O  0.86238597  0.12266875  0.29468004    -0.82500
C371        C  0.79343457  0.11180694  0.33215597     0.98500
C372        C  0.84482227  0.09369514  0.27415443     1.04500
O373        O  0.77231341  0.07477582  0.31776896    -0.78100
C374        C  0.87515893  0.08759716  0.40228869     1.02800
Fe375      Fe  0.95115960  0.11239026  0.11057245     1.65800
Fe376      Fe  0.85760084  0.10279981  0.08896092     1.73200
Fe377      Fe  0.95517027  0.18520397  0.06193648     1.54400
O378        O  0.99354999  0.22842401  0.09627616    -0.81900
O379        O  0.85558106  0.10481919  0.04254590    -0.80200
O380        O  0.00514052  0.17665733  0.11607806    -0.84400
O381        O  0.97725789  0.10271593  0.07418720    -0.79200
O382        O  0.90112204  0.19983923  0.05831830    -0.81000
O383        O  0.84668495  0.03966979  0.08304078    -0.83700
C384        C  0.00810717  0.13587132  0.06122675     0.97000
C385        C  0.01751693  0.21769136  0.11127222     1.04500
O386        O  0.92115137  0.13329695  0.08735131    -1.12700
O387        O  0.85611542  0.09852470  0.13436795    -0.75200
O388        O  0.92495851  0.12128134  0.14745538    -0.78600
O389        O  0.00736341  0.17200578  0.05736843    -0.79300
C390        C  0.88622397  0.11186611  0.15360622     0.95900
O391        O  0.90272115  0.04564308  0.10753713    -0.77300
O392        O  0.86614219  0.16400893  0.09585231    -0.82500
C393        C  0.88544730  0.11932843  0.02271142     0.98500
C394        C  0.86455611  0.18001118  0.07244211     1.04500
O395        O  0.92603432  0.14452170  0.02796693    -0.78100
C396        C  0.86722974  0.02241230  0.09371338     1.02800
C397        C  0.84096410  0.10791156  0.47682590    -0.06000
C398        C  0.86169817  0.09181022  0.49454303     0.00000
C399        C  0.88460529  0.07238320  0.48163273    -0.08600
C400        C  0.88994681  0.07409450  0.45169980    -0.06000
C401        C  0.87231475  0.09344224  0.43387981    -0.00100
C402        C  0.84627538  0.10967045  0.44660072    -0.08500
C403        C  0.82365266  0.12813043  0.42856069     0.61900
H404        H  0.82219555  0.12102317  0.48695216     0.12500
H405        H  0.90814579  0.05976374  0.44205681     0.12600
C406        C  0.90458595  0.04983085  0.49841463     0.62100
F407        F  0.79906317  0.14077443  0.44522506    -0.23100
F408        F  0.79545895  0.09543964  0.40934674    -0.20400
F409        F  0.85480297  0.16565532  0.41375473    -0.20100
F410        F  0.89462000  0.04625495  0.52742817    -0.20100
F411        F  0.81101624  0.98633183  0.98162889    -0.20500
F412        F  0.88872716  0.00673728  0.48768900    -0.23100
C413        C  0.83169329  0.09031179  0.19347341    -0.06000
C414        C  0.87585967  0.11515632  0.18453808     0.00000
C415        C  0.90876413  0.14159435  0.20555548    -0.08600
C416        C  0.89671678  0.13667636  0.23487167    -0.06000
C417        C  0.85313843  0.10820734  0.24370872    -0.00100
C418        C  0.81962344  0.08787111  0.22255207    -0.08500
C419        C  0.77074422  0.06332803  0.22947021     0.61900
H420        H  0.80608191  0.07197575  0.17764829     0.12500
H421        H  0.92184605  0.15288638  0.25124259     0.12600
C422        C  0.95660983  0.17453338  0.19774966     0.62100
F423        F  0.75001865  0.07828347  0.21141179    -0.23100
F424        F  0.76221826  0.07085243  0.25737334    -0.20400
F425        F  0.75286030  0.01759485  0.22511584    -0.20100
F426        F  0.95876702  0.20131261  0.17513457    -0.20100
F427        F  0.97745202  0.15122015  0.19025975    -0.20500
F428        F  0.97950425  0.20289159  0.22055345    -0.23100
C429        C  0.85974442  0.91014773  0.09309641    -0.06000
C430        C  0.83351667  0.88950160  0.06867280     0.00000
C431        C  0.81255481  0.90965945  0.05511310    -0.08600
C432        C  0.82201108  0.95231312  0.06509945    -0.06000
C433        C  0.85118001  0.97431442  0.08828904    -0.00100
C434        C  0.86718970  0.95093507  0.10408347    -0.08500
C435        C  0.89170012  0.96775140  0.13253529     0.61900
H436        H  0.87493096  0.89404237  0.10391353     0.12500
H437        H  0.80785859  0.96935385  0.05414939     0.12600
C438        C  0.78279026  0.88754049  0.02947142     0.62100
F439        F  0.89082788  0.93312239  0.14783148    -0.23100
F440        F  0.87213380  0.98563233  0.14970130    -0.20400
F441        F  0.93533249  0.00003463  0.12753947    -0.20100
F442        F  0.74740227  0.84621126  0.03729293    -0.20100
F443        F  0.80620965  0.88141902  0.00773643    -0.20500
F444        F  0.76645309  0.91341081  0.01897745    -0.23100
C445        C  0.84230237  0.86206569  0.30362019    -0.06000
C446        C  0.86479940  0.86630860  0.32958511     0.00000
C447        C  0.87372780  0.90196946  0.34884289    -0.08600
C448        C  0.86120458  0.93255544  0.34075214    -0.06000
C449        C  0.83988464  0.92921493  0.31455140    -0.00100
C450        C  0.82959278  0.89293570  0.29569649    -0.08500
C451        C  0.80690996  0.88565598  0.26691393     0.61900
H452        H  0.83527752  0.83473045  0.28884048     0.12500
H453        H  0.86995128  0.96103941  0.35472904     0.12600
C454        C  0.89667857  0.90882802  0.37769087     0.62100
F455        F  0.83523578  0.88871002  0.24518802    -0.23100
F456        F  0.79409535  0.91650022  0.26156212    -0.20400
F457        F  0.76971404  0.84302944  0.26617788    -0.20100
F458        F  0.94010918  0.92085727  0.37324664    -0.20100
F459        F  0.87518699  0.86968869  0.39360119    -0.20500
F460        F  0.89686149  0.94268374  0.39400487    -0.23100
C461        C  0.89368944  0.73849354  0.44660893    -0.06000
C462        C  0.86440141  0.74372453  0.42894147     0.00000
C463        C  0.82367575  0.73500269  0.44075708    -0.08600
C464        C  0.81687854  0.72761303  0.47056108    -0.06000
C465        C  0.84860415  0.72767565  0.48890175    -0.00100
C466        C  0.88615330  0.72960988  0.47624719    -0.08500
C467        C  0.91835518  0.72267763  0.49351813     0.61900
H468        H  0.92340654  0.74229317  0.43699787     0.12500
H469        H  0.78680342  0.72311713  0.48000222     0.12600
C470        C  0.78791966  0.73465095  0.42257034     0.62100
F471        F  0.95050987  0.72260047  0.47635076    -0.23100
F472        F  0.92228684  0.71533316  0.01379693    -0.20400
F473        F  0.94440024  0.78931862  0.01603666    -0.20100
F474        F  0.77358675  0.70089870  0.40197130    -0.20100
F475        F  0.80414850  0.77585319  0.40932985    -0.20500
F476        F  0.75162596  0.72656756  0.43884976    -0.23100
C477        C  0.92012789  0.77552724  0.22448301    -0.06000
C478        C  0.88076444  0.74464830  0.23889439     0.00000
C479        C  0.84116256  0.72173370  0.22283548    -0.08600
C480        C  0.84240209  0.73173171  0.19329865    -0.06000
C481        C  0.88183928  0.76307699  0.17956116    -0.00100
C482        C  0.92132113  0.78511310  0.19518177    -0.08500
C483        C  0.96439489  0.81897394  0.18082676     0.61900
H484        H  0.95059590  0.79255155  0.23642934     0.12500
H485        H  0.81253227  0.71513442  0.18061358     0.12600
C486        C  0.79842516  0.68601436  0.23632753     0.62100
F487        F  0.99962948  0.83546983  0.19956838    -0.23100
F488        F  0.96140097  0.85491931  0.17097350    -0.20400
F489        F  0.97293252  0.79882290  0.15783524    -0.20100
F490        F  0.78485099  0.70567342  0.25676683    -0.20100
F491        F  0.80469628  0.65373013  0.24901389    -0.20500
F492        F  0.76516550  0.66457666  0.21620212    -0.23100
C493        C  0.08693144  0.16591708  0.06897952    -0.06000
C494        C  0.04782988  0.13331454  0.05558361     0.00000
C495        C  0.04298256  0.09148533  0.04757545    -0.08600
C496        C  0.07271657  0.07993689  0.05834837    -0.06000
C497        C  0.10962618  0.11082104  0.07428697    -0.00100
C498        C  0.11876295  0.15561818  0.07800360    -0.08500
C499        C  0.16009313  0.19129402  0.09323500     0.61900
H500        H  0.09036097  0.19791555  0.07489234     0.12500
H501        H  0.06741062  0.04665143  0.05384995     0.12600
C502        C  0.00560552  0.05765303  0.02877626     0.62100
F503        F  0.16131612  0.23172221  0.09539080    -0.23100
F504        F  0.19723539  0.19940808  0.07810140    -0.20400
F505        F  0.16157504  0.17712796  0.12069992    -0.20100
F506        F  0.02219180  0.04199537  0.00754918    -0.20100
F507        F  0.98415901  0.07659437  0.01537082    -0.20500
F508        F  0.97562564  0.02179857  0.04531409    -0.23100
C509        C  0.04625007  0.92667909  0.03668038    -0.06000
C510        C  0.07971312  0.91738613  0.04246701     0.00000
C511        C  0.06701931  0.87330280  0.05084593    -0.08600
C512        C  0.02519766  0.84638913  0.06311438    -0.06000
C513        C  0.99445823  0.86064284  0.06368024    -0.00100
C514        C  0.00352546  0.89920409  0.04759153    -0.08500
C515        C  0.96863331  0.91108364  0.04134224     0.61900
H516        H  0.05554537  0.95916924  0.02765406     0.12500
H517        H  0.01647885  0.81398725  0.07205025     0.12600
C518        C  0.09579882  0.85334695  0.04645296     0.62100
F519        F  0.98414219  0.94746837  0.02304670    -0.23100
F520        F  0.95510349  0.92208562  0.06650520    -0.20400
F521        F  0.93322538  0.87479497  0.02805021    -0.20100
F522        F  0.10901629  0.84664474  0.07280838    -0.20100
F523        F  0.13216579  0.88061966  0.02963468    -0.20500
F524        F  0.07198633  0.81221428  0.03248867    -0.23100
C525        C  0.07379391  0.95924205  0.30103999    -0.06000
C526        C  0.10817994  0.96564448  0.31894132     0.00000
C527        C  0.11783438  0.93065799  0.32149846    -0.08600
C528        C  0.08671401  0.88763878  0.31090292    -0.06000
C529        C  0.04820199  0.88025065  0.29739147    -0.00100
C530        C  0.04533918  0.91749467  0.28861239    -0.08500
C531        C  0.00993974  0.91313507  0.26849538     0.61900
H532        H  0.06930907  0.98721444  0.29656725     0.12500
H533        H  0.08939423  0.85880884  0.31646217     0.12600
C534        C  0.15890196  0.93768493  0.33655160     0.62100
F535        F  0.02945924  0.94257226  0.24582261    -0.23100
F536        F  0.98205379  0.92368304  0.28300224    -0.20400
F537        F  0.98537742  0.87004004  0.25734030    -0.20100
F538        F  0.19604192  0.96840439  0.32151236    -0.20100
F539        F  0.15970963  0.89820013  0.33801574    -0.20500
F540        F  0.16061747  0.95337378  0.36427668    -0.23100
C541        C  0.23265288  0.11608902  0.44585275    -0.06000
C542        C  0.19389605  0.08291608  0.43239180     0.00000
C543        C  0.15848298  0.05047345  0.44940520    -0.08600
C544        C  0.16265527  0.05322797  0.47954253    -0.06000
C545        C  0.20104686  0.08675035  0.49298490    -0.00100
C546        C  0.23698505  0.11831121  0.47605993    -0.08500
C547        C  0.27965478  0.15379683  0.48996979     0.61900
H548        H  0.25927981  0.14062013  0.43250774     0.12500
H549        H  0.13609802  0.02868527  0.49294381     0.12600
C550        C  0.11705470  0.01217168  0.43575266     0.62100
F551        F  0.30909820  0.18371240  0.46999255    -0.23100
F552        F  0.19549549  0.15069464  0.01744583    -0.20400
F553        F  0.14455697  0.07642636  0.01839643    -0.20100
F554        F  0.12843085  0.99023706  0.41550503    -0.20100
F555        F  0.09339494  0.02875075  0.42257523    -0.20500
F556        F  0.08983978  0.98079744  0.45590894    -0.23100
C557        C  0.18836626  0.05534514  0.20112183    -0.06000
C558        C  0.21292945  0.09133130  0.18192461     0.00000
C559        C  0.24621808  0.13342739  0.19350803    -0.08600
C560        C  0.24973138  0.13888247  0.22365881    -0.06000
C561        C  0.22342248  0.10340467  0.24242768    -0.00100
C562        C  0.19319748  0.06066372  0.23105606    -0.08500
C563        C  0.16384155  0.02184451  0.25062072     0.61900
H564        H  0.16399926  0.02270169  0.19268149     0.12500
H565        H  0.27265672  0.17144856  0.23300860     0.12600
C566        C  0.27831605  0.17246527  0.17473581     0.62100
F567        F  0.13588387  0.98281677  0.23547584    -0.23100
F568        F  0.13847457  0.03363600  0.26695304    -0.20400
F569        F  0.18945549  0.01283945  0.26845663    -0.20100
F570        F  0.25599198  0.18822795  0.15900945    -0.20100
F571        F  0.30001393  0.15845241  0.15635234    -0.20500
F572        F  0.31003812  0.20811383  0.19088857    -0.23100
C573        C  0.07051468  0.17117571  0.30481951    -0.06000
C574        C  0.07439390  0.13362474  0.29781531     0.00000
C575        C  0.03520820  0.09163501  0.29321158    -0.08600
C576        C  0.99585106  0.08527549  0.30459868    -0.06000
C577        C  0.99294630  0.12120724  0.31601286    -0.00100
C578        C  0.02897477  0.16571416  0.31184625    -0.08500
C579        C  0.02334836  0.20634409  0.31295366     0.61900
H580        H  0.10004867  0.20414554  0.30612052     0.12500
H581        H  0.96684249  0.05171405  0.30429902     0.12600
C582        C  0.03351517  0.05185705  0.27807011     0.62100
F583        F  0.06342044  0.24630936  0.31101483    -0.23100
F584        F  0.00288769  0.20731657  0.33804305    -0.20400
F585        F  0.99755073  0.20398635  0.29002188    -0.20100
F586        F  0.02192075  0.01788182  0.29774099    -0.20100
F587        F  0.07320882  0.06292410  0.26520082    -0.20500
F588        F  0.00180528  0.03621148  0.25676111    -0.23100
C589        C  0.13432573  0.80885483  0.36269911    -0.06000
C590        C  0.14912883  0.83340790  0.38875530     0.00000
C591        C  0.11718551  0.83626807  0.40600267    -0.08600
C592        C  0.07235320  0.81292323  0.39764541    -0.06000
C593        C  0.05692918  0.78644756  0.37238345    -0.00100
C594        C  0.08893489  0.78433790  0.35460482    -0.08500
C595        C  0.07545623  0.75567696  0.32745875     0.61900
H596        H  0.15845536  0.80749041  0.34907710     0.12500
H597        H  0.04862725  0.81572587  0.41104683     0.12600
C598        C  0.12977309  0.86327458  0.43387287     0.62100
F599        F  0.11113366  0.75732499  0.31370764    -0.23100
F600        F  0.05606936  0.77045027  0.30834062    -0.20400
F601        F  0.04585884  0.71130472  0.33438335    -0.20100
F602        F  0.17157608  0.90092934  0.43183220    -0.20100
F603        F  0.12865428  0.83664029  0.45623712    -0.20500
F604        F  0.10086471  0.87803429  0.44020070    -0.23100
C605        C  0.16315633  0.83014867  0.11869859    -0.06000
C606        C  0.13788572  0.81367335  0.14416325     0.00000
C607        C  0.12893194  0.84384202  0.15951466    -0.08600
C608        C  0.14642512  0.88873548  0.14953629    -0.06000
C609        C  0.17466283  0.90606044  0.12532704    -0.00100
C610        C  0.18360745  0.87596235  0.10994756    -0.08500
C611        C  0.21452861  0.89201881  0.08419258     0.61900
H612        H  0.16778959  0.80715998  0.10565508     0.12500
H613        H  0.13803868  0.91094076  0.16077207     0.12600
C614        C  0.09867560  0.82757111  0.18550949     0.62100
F615        F  0.21645860  0.85728904  0.07101136    -0.23100
F616        F  0.25655423  0.92383078  0.09307591    -0.20400
F617        F  0.20072501  0.91074019  0.06379575    -0.20100
F618        F  0.11759836  0.81665204  0.20745781    -0.20100
F619        F  0.05900766  0.78982714  0.17795632    -0.20500
F620        F  0.09010519  0.86003350  0.19579882    -0.23100
C621        C  0.22812171  0.80358055  0.31034705    -0.06000
C622        C  0.20495703  0.76549457  0.32792441     0.00000
C623        C  0.18086031  0.72251298  0.31523758    -0.08600
C624        C  0.18212040  0.71883448  0.28515522    -0.06000
C625        C  0.20757160  0.75662697  0.26741636    -0.00100
C626        C  0.23000291  0.80013832  0.28023616    -0.08500
C627        C  0.25713952  0.84264438  0.26277303     0.61900
H628        H  0.24619432  0.83630996  0.32072366     0.12500
H629        H  0.16382525  0.68575065  0.27530586     0.12600
C630        C  0.15598597  0.68073325  0.33347645     0.62100
F631        F  0.27845887  0.88072773  0.28004614    -0.23100
F632        F  0.23000157  0.84843160  0.24428340    -0.20400
F633        F  0.28891559  0.83948850  0.24718062    -0.20100
F634        F  0.12400818  0.68304817  0.34943377    -0.20100
F635        F  0.18498021  0.67775481  0.35182986    -0.20500
F636        F  0.13552974  0.64194953  0.31679729    -0.23100
C637        C  0.23311369  0.78712040  0.06765006    -0.06000
C638        C  0.19153304  0.75316240  0.07662872     0.00000
C639        C  0.15626686  0.73249788  0.05644508    -0.08600
C640        C  0.16513269  0.74488740  0.02746124    -0.06000
C641        C  0.20732244  0.77722532  0.01823292    -0.00100
C642        C  0.24134028  0.80099609  0.03896958    -0.08500
C643        C  0.28658080  0.84082907  0.03153728     0.61900
H644        H  0.25935297  0.80315433  0.08335157     0.12500
H645        H  0.13964952  0.72725493  0.01149479     0.12600
C646        C  0.10936790  0.69729042  0.06493703     0.62100
F647        F  0.30515488  0.86929113  0.05502222    -0.23100
F648        F  0.24438038  0.86959868  0.50168286    -0.20400
F649        F  0.28972036  0.85461155  0.52716258    -0.20100
F650        F  0.09554264  0.71325377  0.08757497    -0.20100
F651        F  0.10730671  0.65775333  0.07272032    -0.20500
F652        F  0.08003639  0.68711578  0.04255137    -0.23100
C653        C  0.14850397  0.49838289  0.15571396    -0.06000
C654        C  0.17496881  0.50581899  0.18016529     0.00000
C655        C  0.18766670  0.54428944  0.19742348    -0.08600
C656        C  0.18208121  0.57827568  0.18633591    -0.06000
C657        C  0.16060243  0.57343962  0.16001363    -0.00100
C658        C  0.14104246  0.53194941  0.14521942    -0.08500
C659        C  0.11526095  0.52447665  0.11776771     0.61900
H660        H  0.13597207  0.46726446  0.14382597     0.12500
H661        H  0.19588994  0.60970867  0.19819841     0.12600
C662        C  0.20858378  0.55134466  0.22687912     0.62100
F663        F  0.09965609  0.48178724  0.10641497    -0.23100
F664        F  0.14196720  0.55571078  0.09743394    -0.20400
F665        F  0.07942515  0.52925409  0.12331322    -0.20100
F666        F  0.25391340  0.57342824  0.22399859    -0.20100
F667        F  0.19358326  0.51072731  0.24070197    -0.20500
F668        F  0.19787015  0.57719469  0.24421233    -0.23100
C669        C  0.14330380  0.29768796  0.11522929    -0.06000
C670        C  0.15281463  0.28902779  0.14310466     0.00000
C671        C  0.11626610  0.25882438  0.16047163    -0.08600
C672        C  0.07281479  0.24083290  0.15020589    -0.06000
C673        C  0.06307272  0.25051775  0.12283080    -0.00100
C674        C  0.09933252  0.28032559  0.10518012    -0.08500
C675        C  0.09166407  0.29477776  0.07618672     0.61900
H676        H  0.17069430  0.31937224  0.10151849     0.12500
H677        H  0.04554506  0.21753998  0.16360554     0.12600
C678        C  0.12228934  0.24540328  0.19034226     0.62100
F679        F  0.06766883  0.31588969  0.07999836    -0.23100
F680        F  0.06876155  0.25797611  0.05829930    -0.20400
F681        F  0.13073374  0.32450958  0.06256282    -0.20100
F682        F  0.12459088  0.27646492  0.21023788    -0.20100
F683        F  0.16032087  0.24336140  0.19174498    -0.20500
F684        F  0.08733622  0.20339049  0.19769751    -0.23100
C685        C  0.12137242  0.22293681  0.37861470    -0.06000
C686        C  0.16644693  0.23494669  0.37847339     0.00000
C687        C  0.19664461  0.27551508  0.39284776    -0.08600
C688        C  0.18124205  0.30266397  0.40553549    -0.06000
C689        C  0.13667260  0.29182412  0.40422974    -0.00100
C690        C  0.10612262  0.25001370  0.39167959    -0.08500
C691        C  0.05735556  0.23285749  0.39417403     0.61900
H692        H  0.09752180  0.19147855  0.36848547     0.12500
H693        H  0.20467106  0.33349639  0.41642063     0.12600
C694        C  0.24474206  0.28957582  0.39562203     0.62100
F695        F  0.03217018  0.18930640  0.38369576    -0.23100
F696        F  0.04737653  0.26072686  0.37911682    -0.20400
F697        F  0.04623810  0.23274781  0.42278051    -0.20100
F698        F  0.26445290  0.29964467  0.36877986    -0.20100
F699        F  0.24804132  0.25492432  0.40755622    -0.20500
F700        F  0.26767546  0.32725094  0.41305359    -0.23100
C701        C  0.22901677  0.39077612  0.06114013    -0.06000
C702        C  0.21321462  0.41078659  0.08037870     0.00000
C703        C  0.19881762  0.43902850  0.06985876    -0.08600
C704        C  0.20134029  0.44703779  0.04014406    -0.06000
C705        C  0.21772460  0.42756101  0.02053278    -0.00100
C706        C  0.23114238  0.39793649  0.03132805    -0.08500
C707        C  0.24813521  0.37401269  0.01220183     0.61900
H708        H  0.24047668  0.36974014  0.07001145     0.12500
H709        H  0.19005499  0.46863986  0.03209295     0.12600
C710        C  0.18108305  0.46059693  0.09003790     0.62100
F711        F  0.26162873  0.34946535  0.02796836    -0.23100
F712        F  0.27659178  0.40553284  0.49750633    -0.20400
F713        F  0.20827003  0.34347810  0.49518088    -0.20100
F714        F  0.21183296  0.48534583  0.11103302    -0.20100
F715        F  0.14303561  0.42697985  0.10277171    -0.20500
F716        F  0.17119947  0.48924171  0.07576204    -0.23100
C717        C  0.14693531  0.37275846  0.31267633    -0.06000
C718        C  0.18315756  0.38820454  0.33124308     0.00000
C719        C  0.22487342  0.39993309  0.31993357    -0.08600
C720        C  0.22925450  0.39834872  0.29006152    -0.06000
C721        C  0.19455411  0.38907569  0.27118480    -0.00100
C722        C  0.15181933  0.37366068  0.28262332    -0.08500
C723        C  0.11202549  0.36064368  0.26377899     0.61900
H724        H  0.11501535  0.36257908  0.32201585     0.12500
H725        H  0.26123646  0.40801636  0.28106277     0.12600
C726        C  0.26553363  0.41839679  0.33875928     0.62100
F727        F  0.07413695  0.34702755  0.27986252    -0.23100
F728        F  0.10438072  0.32519002  0.24593250    -0.20400
F729        F  0.11931874  0.39703612  0.24741512    -0.20100
F730        F  0.26066199  0.38615878  0.35818993    -0.20100
F731        F  0.27148920  0.45612551  0.35336475    -0.20500
F732        F  0.30332840  0.43096190  0.32283700    -0.23100
C733        C  0.18531961  0.57404954  0.43400651    -0.06000
C734        C  0.16309708  0.55447269  0.40804829     0.00000
C735        C  0.14095142  0.57318888  0.39405140    -0.08600
C736        C  0.14575397  0.61362919  0.40524102    -0.06000
C737        C  0.17120268  0.63495655  0.43010674    -0.00100
C738        C  0.18702154  0.61189610  0.44630010    -0.08500
C739        C  0.20638551  0.62645813  0.47622449     0.61900
H740        H  0.20166478  0.55936369  0.44516146     0.12500
H741        H  0.13157919  0.63007332  0.39361253     0.12600
C742        C  0.11551978  0.55280558  0.36646602     0.62100
F743        F  0.19975956  0.58968664  0.49198107    -0.23100
F744        F  0.18629792  0.64593596  0.49121540    -0.20400
F745        F  0.25118342  0.65670275  0.47421777    -0.20100
F746        F  0.08213732  0.50903821  0.37106787    -0.20100
F747        F  0.14363998  0.55315884  0.34547566    -0.20500
F748        F  0.09637136  0.57631831  0.35644087    -0.23100
C749        C  0.42358097  0.77809823  0.44336160    -0.06000
C750        C  0.44065500  0.77036074  0.41837649     0.00000
C751        C  0.42411343  0.77287739  0.39116054    -0.08600
C752        C  0.39223012  0.78560799  0.39023260    -0.06000
C753        C  0.37335523  0.79092200  0.41541513    -0.00100
C754        C  0.38872218  0.78610084  0.44282610    -0.08500
C755        C  0.37048105  0.78976675  0.47201468     0.61900
H756        H  0.43743835  0.77656451  0.46373730     0.12500
H757        H  0.37903158  0.78733543  0.36961025     0.12600
C758        C  0.43515416  0.75881041  0.36280576     0.62100
F759        F  0.38545757  0.77467245  0.49420297    -0.23100
F760        F  0.32517209  0.76411849  0.47293526    -0.20400
F761        F  0.38433884  0.83407885  0.47806739    -0.20100
F762        F  0.45357909  0.79506773  0.34431341    -0.20100
F763        F  0.46371000  0.74298608  0.36557264    -0.20500
F764        F  0.39669700  0.72471935  0.35060165    -0.23100
C765        C  0.68166214  0.82891699  0.37052050    -0.06000
C766        C  0.68096540  0.82181841  0.40032699     0.00000
C767        C  0.70761139  0.86072681  0.41790795    -0.08600
C768        C  0.73167513  0.90416971  0.40527335    -0.06000
C769        C  0.73101554  0.91133796  0.37562052    -0.00100
C770        C  0.70532997  0.87249498  0.35795304    -0.08500
C771        C  0.70493770  0.87553441  0.32549927     0.61900
H772        H  0.66203417  0.79984449  0.35690851     0.12500
H773        H  0.75223111  0.93308712  0.41886276     0.12600
C774        C  0.71297043  0.85884881  0.45015102     0.62100
F775        F  0.66867083  0.83826097  0.31360379    -0.23100
F776        F  0.74210761  0.87733162  0.31464361    -0.20400
F777        F  0.70380444  0.91311525  0.31704874    -0.20100
F778        F  0.69574782  0.81554105  0.46023387    -0.20100
F779        F  0.69266059  0.87884940  0.46425218    -0.20500
F780        F  0.75734700  0.88244442  0.45689937    -0.23100
C781        C  0.40754849  0.54369664  0.40816055    -0.06000
C782        C  0.41622623  0.57816685  0.38880298     0.00000
C783        C  0.38078868  0.57766327  0.37468586    -0.08600
C784        C  0.33782122  0.54896891  0.38496098    -0.06000
C785        C  0.32973693  0.51878573  0.40734506    -0.00100
C786        C  0.36430767  0.51313802  0.41736836    -0.08500
C787        C  0.35576230  0.47677204  0.43883847     0.61900
H788        H  0.43508032  0.54385316  0.41832238     0.12500
H789        H  0.31036711  0.55023352  0.37582785     0.12600
C790        C  0.38908057  0.60738538  0.34886822     0.62100
F791        F  0.39427670  0.47900930  0.44710734    -0.23100
F792        F  0.32878137  0.43478179  0.42661505    -0.20400
F793        F  0.33565238  0.48144279  0.46316760    -0.20100
F794        F  0.41323826  0.59943025  0.32860475    -0.20100
F795        F  0.41246057  0.65220134  0.35684053    -0.20500
F796        F  0.35011063  0.59862352  0.33622054    -0.23100
C797        C  0.41894775  0.56382485  0.14582727    -0.06000
C798        C  0.37636233  0.55738056  0.14500001     0.00000
C799        C  0.37130571  0.59538223  0.14415239    -0.08600
C800        C  0.40676791  0.63695827  0.15239863    -0.06000
C801        C  0.44840907  0.64271757  0.15709788    -0.00100
C802        C  0.45595665  0.60707129  0.15034194    -0.08500
C803        C  0.50204857  0.61435876  0.14784918     0.61900
H804        H  0.42280720  0.53472481  0.14474773     0.12500
H805        H  0.40194144  0.66538284  0.15490818     0.12600
C806        C  0.32846075  0.59276757  0.13637227     0.62100
F807        F  0.50116069  0.57426137  0.14324922    -0.23100
F808        F  0.52593284  0.63422520  0.17253927    -0.20400
F809        F  0.52346508  0.64220767  0.12477052    -0.20100
F810        F  0.30767267  0.59517456  0.16107948    -0.20100
F811        F  0.30056569  0.55339721  0.12157092    -0.20500
F812        F  0.33704285  0.62840608  0.11875780    -0.23100
C813        C  0.66750341  0.78648910  0.15261652    -0.06000
C814        C  0.67808388  0.83182654  0.14905388     0.00000
C815        C  0.71873159  0.86173496  0.13585193    -0.08600
C816        C  0.74537587  0.84481535  0.12497731    -0.06000
C817        C  0.73381504  0.79893330  0.12734679    -0.00100
C818        C  0.69449894  0.76976831  0.14238061    -0.08500
C819        C  0.68206655  0.72176789  0.14889565     0.61900
H820        H  0.63723395  0.76349115  0.16366546     0.12500
H821        H  0.77579649  0.86791647  0.11432082     0.12600
C822        C  0.73449631  0.91150344  0.13429991     0.62100
F823        F  0.64646080  0.70104835  0.16750873    -0.23100
F824        F  0.71724326  0.72164477  0.16167908    -0.20400
F825        F  0.67105594  0.69680905  0.12370729    -0.20100
F826        F  0.73040255  0.92724242  0.16093159    -0.20100
F827        F  0.70977993  0.91851429  0.11447762    -0.20500
F828        F  0.77818421  0.93646440  0.12631325    -0.23100
C829        C  0.56296367  0.79905262  0.28407163    -0.06000
C830        C  0.56044906  0.76490700  0.26578845     0.00000
C831        C  0.56637892  0.73090721  0.27764018    -0.08600
C832        C  0.57203157  0.73098736  0.30747935    -0.06000
C833        C  0.57036454  0.76254590  0.32620035    -0.00100
C834        C  0.56811679  0.79877621  0.31414442    -0.08500
C835        C  0.57090149  0.83676476  0.33250073     0.61900
H836        H  0.55988815  0.82575830  0.27454403     0.12500
H837        H  0.57617818  0.70474470  0.31663513     0.12600
C838        C  0.56400735  0.69294871  0.25944914     0.62100
F839        F  0.61112746  0.85930414  0.34628815    -0.23100
F840        F  0.53778430  0.81989580  0.35284181    -0.20400
F841        F  0.56681916  0.86772764  0.31621312    -0.20100
F842        F  0.59861729  0.71006962  0.24005439    -0.20100
F843        F  0.52445283  0.67112279  0.24477862    -0.20500
F844        F  0.56657234  0.66131477  0.27600003    -0.23100
C845        C  0.52382788  0.74716767  0.06533592    -0.06000
C846        C  0.56609241  0.77829277  0.07532663     0.00000
C847        C  0.60003481  0.80359960  0.05517990    -0.08600
C848        C  0.59144673  0.79411247  0.02554677    -0.06000
C849        C  0.54929050  0.76203623  0.01556187    -0.00100
C850        C  0.51433348  0.73945798  0.03581122    -0.08500
C851        C  0.46658387  0.70923231  0.02658478     0.61900
H852        H  0.49763385  0.73013163  0.08102629     0.12500
H853        H  0.61759635  0.81178135  0.00995279     0.12600
C854        C  0.64448853  0.84144176  0.06507203     0.62100
F855        F  0.43760011  0.70157233  0.04902103    -0.23100
F856        F  0.56108205  0.67881361  0.50984254    -0.20400
F857        F  0.45663602  0.72934806  0.00467333    -0.20100
F858        F  0.66320162  0.82442336  0.08311304    -0.20100
F859        F  0.63918879  0.87343022  0.07964784    -0.20500
F860        F  0.67299360  0.86239347  0.04226402    -0.23100
C861        C  0.33987149  0.75610041  0.13560890    -0.06000
C862        C  0.33173440  0.77407706  0.16049357     0.00000
C863        C  0.36689120  0.80780189  0.17656653    -0.08600
C864        C  0.40990244  0.82143887  0.16791199    -0.06000
C865        C  0.41846124  0.80132477  0.14437210    -0.00100
C866        C  0.38317528  0.76910980  0.12733352    -0.08500
C867        C  0.39168336  0.74858468  0.10086053     0.61900
H868        H  0.31207732  0.73082505  0.12332024     0.12500
H869        H  0.43696912  0.84497227  0.18117017     0.12600
C870        C  0.35851005  0.82726933  0.20358980     0.62100
F871        F  0.35326423  0.72089668  0.08585155    -0.23100
F872        F  0.41003614  0.72323569  0.10859304    -0.20400
F873        F  0.42051586  0.78264653  0.08272399    -0.20100
F874        F  0.33219637  0.79298087  0.22240526    -0.20100
F875        F  0.33767102  0.85046332  0.19642444    -0.20500
F876        F  0.39708163  0.85651941  0.21770965    -0.23100
C877        C  0.80069208  0.56368166  0.04198033    -0.06000
C878        C  0.84666998  0.57926819  0.04137084     0.00000
C879        C  0.87513143  0.62142450  0.05454924    -0.08600
C880        C  0.85715956  0.64700025  0.06591083    -0.06000
C881        C  0.81149493  0.63238034  0.06504918    -0.00100
C882        C  0.78284829  0.58856853  0.05461071    -0.08500
C883        C  0.73290879  0.56225369  0.56856493     0.61900
H884        H  0.77312982  0.52151581  0.54245236     0.12500
H885        H  0.87926959  0.67894872  0.07606739     0.12600
C886        C  0.92374040  0.63820441  0.05823807     0.62100
F887        F  0.70901018  0.51667405  0.56215966    -0.23100
F888        F  0.71551467  0.58396529  0.55370636    -0.20400
F889        F  0.72873834  0.56736963  0.59776385    -0.20100
F890        F  0.94385245  0.64540464  0.03162672    -0.20100
F891        F  0.92863859  0.60649451  0.07299400    -0.20500
F892        F  0.94514945  0.67828222  0.07362808    -0.23100
C893        C  0.00797480  0.48278230  0.45323264    -0.06000
C894        C  0.01579347  0.50721809  0.47914930     0.00000
C895        C  0.05199343  0.51346216  0.49594622    -0.08600
C896        C  0.07658105  0.49310916  0.48721466    -0.06000
C897        C  0.06541011  0.46437785  0.46286909    -0.00100
C898        C  0.02948114  0.45866351  0.44588781    -0.08500
C899        C  0.01170966  0.42522644  0.42099837     0.61900
H900        H  0.98254632  0.48013769  0.43940246     0.12500
H901        H  0.10497990  0.49969332  0.49982545     0.12600
C902        C  0.06686062  0.54268332  0.52280459     0.62100
F903        F  0.97771287  0.42583495  0.40693417    -0.23100
F904        F  0.99590152  0.38226092  0.43139586    -0.20400
F905        F  0.04404043  0.43469216  0.40091975    -0.20100
F906        F  0.04411626  0.56499122  0.52728275    -0.20100
F907        F  0.11110821  0.57484793  0.52031074    -0.20500
F908        F  0.06098178  0.51625208  0.54646115    -0.23100
C909        C  0.78998959  0.21300394  0.30083109    -0.06000
C910        C  0.83538948  0.24517733  0.29642180     0.00000
C911        C  0.86647812  0.23376194  0.30575712    -0.08600
C912        C  0.85098321  0.19107453  0.31841811    -0.06000
C913        C  0.80567462  0.15743073  0.32016911    -0.00100
C914        C  0.77491527  0.17001308  0.31303907    -0.08500
C915        C  0.72698951  0.13972731  0.32096556     0.61900
H916        H  0.76581156  0.22166035  0.29462826     0.12500
H917        H  0.87485971  0.18357780  0.32685097     0.12600
C918        C  0.91575506  0.26625943  0.30274733     0.62100
F919        F  0.70271852  0.15981779  0.31503328    -0.23100
F920        F  0.72344154  0.13093703  0.35012898    -0.20400
F921        F  0.70955773  0.09946190  0.30599183    -0.20100
F922        F  0.92716014  0.30713424  0.31551317    -0.20100
F923        F  0.92720319  0.27268455  0.27393864    -0.20500
F924        F  0.94012559  0.25020363  0.31569265    -0.23100
C925        C  0.00270950  0.49429970  0.20173218    -0.06000
C926        C  0.00879811  0.47932387  0.22842999     0.00000
C927        C  0.04357037  0.51152164  0.24606647    -0.08600
C928        C  0.06902126  0.55705126  0.23712089    -0.06000
C929        C  0.06020815  0.57271026  0.21152548    -0.00100
C930        C  0.02507023  0.54055378  0.19404709    -0.08500
C931        C  0.00954582  0.55503225  0.16811964     0.61900
H932        H  0.97830212  0.46976924  0.18740370     0.12500
H933        H  0.09636705  0.58090058  0.25035899     0.12600
C934        C  0.05442874  0.49851265  0.27452489     0.62100
F935        F  0.97317635  0.51923135  0.15529606    -0.23100
F936        F  0.04226037  0.57425907  0.14760910    -0.20400
F937        F  0.99789010  0.58595143  0.17676473    -0.20100
F938        F  0.04088866  0.45319458  0.27501622    -0.20100
F939        F  0.03376950  0.50786185  0.29656582    -0.20500
F940        F  0.09945912  0.52261714  0.27918888    -0.23100
C941        C  0.87591599  0.39846905  0.36421048    -0.06000
C942        C  0.88667953  0.43554280  0.34645726     0.00000
C943        C  0.90868016  0.47948893  0.35869802    -0.08600
C944        C  0.91507934  0.48383426  0.38866025    -0.06000
C945        C  0.90013623  0.44619034  0.40661441    -0.00100
C946        C  0.88176756  0.40288834  0.39409842    -0.08500
C947        C  0.86459159  0.36115460  0.41229756     0.61900
H948        H  0.86117644  0.36524057  0.35455622     0.12500
H949        H  0.93016904  0.51688322  0.39863164     0.12600
C950        C  0.92381643  0.52149977  0.34083392     0.62100
F951        F  0.89859849  0.36198671  0.42726566    -0.23100
F952        F  0.84391065  0.32186881  0.39606773    -0.20400
F953        F  0.83442152  0.36027409  0.43144181    -0.20100
F954        F  0.88844722  0.51814153  0.32609455    -0.20100
F955        F  0.95593072  0.52638682  0.32152686    -0.20500
F956        F  0.94158819  0.56015408  0.35765808    -0.23100
C957        C  0.87396114  0.45343450  0.11674709    -0.06000
C958        C  0.89275435  0.43595263  0.09748410     0.00000
C959        C  0.91828094  0.41859586  0.10887018    -0.08600
C960        C  0.91814716  0.41338082  0.13886477    -0.06000
C961        C  0.89568987  0.42711329  0.15747032    -0.00100
C962        C  0.87488853  0.44925186  0.14650506    -0.08500
C963        C  0.85159334  0.46606546  0.16597372     0.61900
H964        H  0.85691877  0.46944602  0.10842469     0.12500
H965        H  0.93511572  0.39783682  0.14814543     0.12600
C966        C  0.94594975  0.40615648  0.09014141     0.62100
F967        F  0.83112405  0.48436910  0.15066494    -0.23100
F968        F  0.88169579  0.49908146  0.18430351    -0.20400
F969        F  0.81973864  0.43050565  0.18178054    -0.20100
F970        F  0.97391648  0.44231727  0.07303585    -0.20100
F971        F  0.91904664  0.36928503  0.07305305    -0.20500
F972        F  0.97183480  0.39533306  0.10643755    -0.23100
C973        C  0.74595044  0.54809741  0.30539615    -0.06000
C974        C  0.71774189  0.56413130  0.29668450     0.00000
C975        C  0.73363905  0.61070608  0.30092012    -0.08600
C976        C  0.77750781  0.63917459  0.31063913    -0.06000
C977        C  0.80685640  0.62368301  0.31635124    -0.00100
C978        C  0.78911860  0.57686395  0.31637246    -0.08500
C979        C  0.81416587  0.55781222  0.33094029     0.61900
H980        H  0.73386172  0.51236736  0.30416531     0.12500
H981        H  0.78898773  0.67432707  0.31439544     0.12600
C982        C  0.70454961  0.63056842  0.29610854     0.62100
F983        F  0.79231359  0.51131469  0.32886870    -0.23100
F984        F  0.81903067  0.56951283  0.35979458    -0.20400
F985        F  0.85555582  0.57562513  0.31880161    -0.20100
F986        F  0.66576348  0.60647114  0.31154306    -0.20100
F987        F  0.69515519  0.62905816  0.26717090    -0.20500
F988        F  0.72461458  0.67506618  0.30510882    -0.23100
C989        C  0.44539082  0.43783514  0.23442054    -0.06000
C990        C  0.47868840  0.48421326  0.23298728     0.00000
C991        C  0.46606766  0.51418415  0.22272042    -0.08600
C992        C  0.42247796  0.49691188  0.21237526    -0.06000
C993        C  0.38957481  0.45050406  0.21316798    -0.00100
C994        C  0.40128741  0.42064098  0.22515066    -0.08500
C995        C  0.36689404  0.37140944  0.22970102     0.61900
H996        H  0.45395247  0.41460764  0.24337566     0.12500
H997        H  0.41346835  0.52017747  0.20397654     0.12600
C998        C  0.49745972  0.56435850  0.22496677     0.62100
F999        F  0.38370363  0.34901493  0.24454837    -0.23100
F1000       F  0.35165634  0.35008387  0.20343761    -0.20400
F1001       F  0.33200249  0.36812512  0.24548280    -0.20100
F1002       F  0.53380511  0.57671176  0.20764604    -0.20100
F1003       F  0.51099698  0.57572434  0.25318874    -0.20500
F1004       F  0.47763658  0.58814675  0.21678859    -0.23100
C1005       C  0.75438014  0.50385810  0.22958022    -0.06000
C1006       C  0.71610911  0.46994160  0.21599622     0.00000
C1007       C  0.71418049  0.42962207  0.20731997    -0.08600
C1008       C  0.74456381  0.41970072  0.21883408    -0.06000
C1009       C  0.77999396  0.45127575  0.23548011    -0.00100
C1010       C  0.78751247  0.49546151  0.23861220    -0.08500
C1011       C  0.82897082  0.53231550  0.25274092     0.61900
H1012       H  0.75630332  0.53522453  0.23544859     0.12500
H1013       H  0.74058035  0.38691625  0.21475056     0.12600
C1014       C  0.67824506  0.39469482  0.18806705     0.62100
F1015       F  0.82713184  0.57088142  0.25761099    -0.23100
F1016       F  0.86480530  0.54339423  0.23518132    -0.20400
F1017       F  0.83497337  0.51724259  0.27868713    -0.20100
F1018       F  0.65045459  0.35700719  0.20405156    -0.20100
F1019       F  0.69707562  0.38251025  0.16628145    -0.20500
F1020       F  0.65377940  0.41086492  0.17541465    -0.23100
C1021       C  0.32938965  0.18690196  0.06401467    -0.06000
C1022       C  0.33958067  0.15217054  0.06407162     0.00000
C1023       C  0.38208828  0.16334291  0.05470813    -0.08600
C1024       C  0.41196263  0.20784542  0.04497821    -0.06000
C1025       C  0.40073591  0.24185430  0.04315506    -0.00100
C1026       C  0.35848220  0.23088164  0.05336619    -0.08500
C1027       C  0.34433029  0.26559396  0.05394172     0.61900
H1028       H  0.29759584  0.17916988  0.07227655     0.12500
H1029       H  0.42915309  0.20907301  0.53609161     0.12600
C1030       C  0.39612337  0.12869504  0.05569116     0.62100
F1031       F  0.30468705  0.25006417  0.06828179    -0.23100
F1032       F  0.33911590  0.27591608  0.02615738    -0.20400
F1033       F  0.37584541  0.30425895  0.06787690    -0.20100
F1034       F  0.36964717  0.10278706  0.57966937    -0.20100
F1035       F  0.44039004  0.14740692  0.04929963    -0.20500
F1036       F  0.33320256  0.09383317  0.53827612    -0.23100
C1037       C  0.67322010  0.41396225  0.97060702    -0.06000
C1038       C  0.66669326  0.44787047  0.98187460     0.00000
C1039       C  0.69978669  0.49029515  0.48309348    -0.08600
C1040       C  0.74217014  0.49838858  0.47641936    -0.06000
C1041       C  0.74825588  0.46316795  0.46720523    -0.00100
C1042       C  0.71457156  0.42349115  0.96076130    -0.08500
C1043       C  0.71799969  0.38620865  0.94583892     0.61900
H1044       H  0.64556976  0.37967018  0.96907781     0.12500
H1045       H  0.77086789  0.53126149  0.48048849     0.12600
C1046       C  0.69338956  0.52935754  0.49055830     0.62100
F1047       F  0.68734273  0.36814135  0.92390656    -0.23100
F1048       F  0.70938042  0.35266849  0.96530705    -0.20400
F1049       F  0.75923562  0.40182156  0.93377389    -0.20100
F1050       F  0.66985589  0.52106339  0.51582806    -0.20100
F1051       F  0.67023642  0.53475711  0.46873549    -0.20500
F1052       F  0.73319302  0.56934697  0.49369685    -0.23100
C1053       C  0.48634606  0.49101340  0.44969700    -0.06000
C1054       C  0.46833460  0.47920463  0.47763106     0.00000
C1055       C  0.47126847  0.51432539  0.49541630    -0.08600
C1056       C  0.49404983  0.55932228  0.48553728    -0.06000
C1057       C  0.51456687  0.57168305  0.45830949    -0.00100
C1058       C  0.51110316  0.53650278  0.44022360    -0.08500
C1059       C  0.53459375  0.54674815  0.41139825     0.61900
H1060       H  0.48266772  0.46436426  0.43559680     0.12500
H1061       H  0.49465821  0.58528153  0.49915016     0.12600
C1062       C  0.44949844  0.50582405  0.52476147     0.62100
F1063       F  0.52758794  0.50810682  0.39739873    -0.23100
F1064       F  0.57942527  0.57446016  0.41562102    -0.20400
F1065       F  0.51989700  0.56787515  0.39362050    -0.20100
F1066       F  0.48161049  0.52465866  0.54575378    -0.20100
F1067       F  0.42209062  0.46047410  0.53038161    -0.25900
F1068       F  0.42412989  0.52577768  0.52620172    -0.23100
C1069       C  0.51602944  0.39859405  0.11146217    -0.06000
C1070       C  0.54450677  0.43462364  0.09343041     0.00000
C1071       C  0.57018330  0.47817790  0.10583292    -0.08600
C1072       C  0.56871795  0.48300130  0.13597536    -0.06000
C1073       C  0.54267847  0.44619085  0.15422464    -0.00100
C1074       C  0.51473715  0.40335981  0.14154370    -0.08500
C1075       C  0.48568194  0.36209148  0.15953227     0.61900
H1076       H  0.49529123  0.36575336  0.10174971     0.12500
H1077       H  0.58927648  0.51582367  0.14577184     0.12600
C1078       C  0.60011673  0.51917797  0.08777798     0.62100
F1079       F  0.46210251  0.32365940  0.14281665    -0.23100
F1080       F  0.45574580  0.36847836  0.17504221    -0.20400
F1081       F  0.51163505  0.35473548  0.17806009    -0.20100
F1082       F  0.57499039  0.52792195  0.06927770    -0.20100
F1083       F  0.62899024  0.51144921  0.07205974    -0.20500
F1084       F  0.62486606  0.55732159  0.10453007    -0.23100
C1085       C  0.48504805  0.39363854  0.38609912    -0.06000
C1086       C  0.52158864  0.41517760  0.40453241     0.00000
C1087       C  0.56444263  0.43811904  0.39268883    -0.08600
C1088       C  0.56922625  0.43680386  0.36279809    -0.06000
C1089       C  0.53289386  0.41290424  0.34419337    -0.00100
C1090       C  0.48965496  0.39226669  0.35603796    -0.08500
C1091       C  0.44839684  0.36815501  0.33767420     0.61900
H1092       H  0.45250034  0.37683049  0.39572128     0.12500
H1093       H  0.60213560  0.45427776  0.35379680     0.12600
C1094       C  0.60509880  0.46176943  0.41148596     0.62100
F1095       F  0.41029178  0.34927700  0.35412790    -0.23100
F1096       F  0.44827546  0.33377141  0.32221697    -0.20400
F1097       F  0.44696468  0.39831191  0.31905038    -0.20100
F1098       F  0.60508662  0.43110981  0.43027541    -0.20100
F1099       F  0.60503956  0.49629185  0.42670374    -0.20500
F1100       F  0.64374430  0.48022048  0.39561814    -0.23100
C1101       C  0.39146382  0.13836462  0.32008098    -0.06000
C1102       C  0.38396496  0.11756040  0.29264497     0.00000
C1103       C  0.35153249  0.11913043  0.27532578    -0.08600
C1104       C  0.33010565  0.14250539  0.28542364    -0.06000
C1105       C  0.33505697  0.16019075  0.31363987    -0.00100
C1106       C  0.36681967  0.15774098  0.33117930    -0.08500
C1107       C  0.37585047  0.17694323  0.36153866     0.61900
H1108       H  0.41677624  0.13869889  0.33322361     0.12500
H1109       H  0.30808272  0.14590037  0.27126754     0.12600
C1110       C  0.33894368  0.09583108  0.24618359     0.62100
F1111       F  0.41334264  0.17993652  0.37291611    -0.23100
F1112       F  0.34080233  0.14961225  0.37931388    -0.20400
F1113       F  0.38189087  0.21978228  0.36148488    -0.20100
F1114       F  0.32532469  0.05080702  0.24924524    -0.20100
F1115       F  0.37429542  0.11559397  0.22762037    -0.20500
F1116       F  0.30487133  0.09819374  0.23369266    -0.23100
C1117       C  0.65888785  0.21959124  0.22283195    -0.06000
C1118       C  0.65226321  0.18179518  0.23807710     0.00000
C1119       C  0.68708141  0.17247983  0.23884907    -0.08600
C1120       C  0.72991874  0.20716011  0.23140744    -0.06000
C1121       C  0.73715178  0.24756418  0.21961306    -0.00100
C1122       C  0.70045905  0.25087917  0.21161163    -0.08500
C1123       C  0.70390691  0.28219724  0.18773720     0.61900
H1124       H  0.63080273  0.22322527  0.21848723     0.12500
H1125       H  0.75809803  0.20379534  0.23597961     0.12600
C1126       C  0.67929312  0.12640665  0.24643549     0.62100
F1127       F  0.66975101  0.29061106  0.18927911    -0.23100
F1128       F  0.70161543  0.26164117  0.16161140    -0.20400
F1129       F  0.74297956  0.32308439  0.18850350    -0.20100
F1130       F  0.71847523  0.12687355  0.24931854    -0.20100
F1131       F  0.65543137  0.09625561  0.22474761    -0.20500
F1132       F  0.65593183  0.11140911  0.27178128    -0.23100
C1133       C  0.47427698  0.95049402  0.20230175    -0.06000
C1134       C  0.46363144  0.94886809  0.23173228     0.00000
C1135       C  0.47605429  0.92437739  0.25003817    -0.08600
C1136       C  0.50124990  0.90616467  0.23894790    -0.06000
C1137       C  0.51468792  0.91049920  0.20997366    -0.00100
C1138       C  0.50047138  0.93317230  0.19124700    -0.08500
C1139       C  0.51037665  0.93885799  0.15918645     0.61900
H1140       H  0.46361992  0.96727947  0.18777577     0.12500
H1141       H  0.50945295  0.88665804  0.25293747     0.12600
C1142       C  0.46037077  0.91467620  0.28106700     0.62100
F1143       F  0.52654590  0.98304420  0.15174104    -0.23100
F1144       F  0.47207560  0.91226999  0.14390154    -0.20400
F1145       F  0.54152353  0.92838576  0.15073936    -0.20100
F1146       F  0.41791644  0.90677886  0.28341037    -0.20100
F1147       F  0.48808997  0.95084003  0.29837687    -0.20500
F1148       F  0.45985823  0.87681810  0.29109079    -0.23100
C1149       C  0.46108945  0.21622079  0.23784447    -0.06000
C1150       C  0.48423806  0.20674179  0.21713596     0.00000
C1151       C  0.51845160  0.24189534  0.20126649    -0.08600
C1152       C  0.53393164  0.28626212  0.21016756    -0.06000
C1153       C  0.51450669  0.29529184  0.23363282    -0.00100
C1154       C  0.47657823  0.26039196  0.24702987    -0.08500
C1155       C  0.45524576  0.26971798  0.27250808     0.61900
H1156       H  0.43501120  0.18872855  0.24981284     0.12500
H1157       H  0.56168088  0.31380470  0.19916324     0.12600
C1158       C  0.54068005  0.23310699  0.17624215     0.62100
F1159       F  0.42077935  0.23059074  0.28384088    -0.23100
F1160       F  0.43892569  0.29660623  0.26409356    -0.20400
F1161       F  0.48618015  0.29139979  0.29396349    -0.20100
F1162       F  0.51765856  0.18837337  0.16761688    -0.20100
F1163       F  0.58269695  0.24436710  0.18406661    -0.20500
F1164       F  0.54321226  0.25915819  0.15309199    -0.23100
C1165       C  0.78156840  0.12595061  0.07495421    -0.06000
C1166       C  0.81783383  0.16182863  0.05994751     0.00000
C1167       C  0.80741160  0.17540509  0.03386525    -0.08600
C1168       C  0.76284764  0.15223109  0.02376361    -0.06000
C1169       C  0.72687131  0.11797058  0.03948650    -0.00100
C1170       C  0.73697825  0.10448711  0.06544452    -0.08500
C1171       C  0.70042963  0.06688473  0.08280882     0.61900
H1172       H  0.78812609  0.11421504  0.09469855     0.12500
H1173       H  0.74702463  0.14810805  0.50114259     0.12600
C1174       C  0.83369336  0.20367256  0.51563805     0.62100
F1175       F  0.71620022  0.05768063  0.10737605    -0.23100
F1176       F  0.67972736  0.02812033  0.06615044    -0.20400
F1177       F  0.66994083  0.07868242  0.09099767    -0.20100
F1178       F  0.86658484  0.19517818  0.50803391    -0.20100
F1179       F  0.86293477  0.25260731  0.03566687    -0.20500
F1180       F  0.81720264  0.21083347  0.49064283    -0.23100
C1181       C  0.54214699  0.25203056  0.46104186    -0.06000
C1182       C  0.50001953  0.24482175  0.46687431     0.00000
C1183       C  0.46632721  0.20117622  0.47479539    -0.08600
C1184       C  0.48458052  0.17517177  0.98758872    -0.06000
C1185       C  0.52938630  0.18802209  0.98828719    -0.00100
C1186       C  0.55453273  0.22185189  0.47042161    -0.08500
C1187       C  0.59965850  0.23005512  0.46237319     0.61900
H1188       H  0.56689392  0.28408046  0.45211162     0.12500
H1189       H  0.46034178  0.14297169  0.99650449     0.12600
C1190       C  0.42244731  0.18487929  0.96923771     0.62100
F1191       F  0.62059101  0.26419153  0.44242341    -0.23100
F1192       F  0.59485952  0.19118222  0.45013728    -0.20400
F1193       F  0.63095628  0.24702758  0.98875144    -0.20100
F1194       F  0.41368161  0.19389126  0.44076066    -0.20100
F1195       F  0.40706651  0.20864363  0.98420259    -0.20500
F1196       F  0.39676670  0.14003714  0.97685225    -0.23100
C1197       C  0.44026249  0.96813582  0.48732070    -0.06000
C1198       C  0.47252297  0.95851001  0.47665530     0.00000
C1199       C  0.46062517  0.92940217  0.45235489    -0.08600
C1200       C  0.41667444  0.90827722  0.44181116    -0.06000
C1201       C  0.38406879  0.91567474  0.45400249    -0.00100
C1202       C  0.39739121  0.94896691  0.47556588    -0.08500
C1203       C  0.36707355  0.96559574  0.48503342     0.61900
H1204       H  0.44900905  0.99204665  0.50480737     0.12500
H1205       H  0.40690776  0.88410684  0.42445052     0.12600
C1206       C  0.49339119  0.91936718  0.43809716     0.62100
F1207       F  0.38673952  0.00022342  0.50505227    -0.23100
F1208       F  0.32941737  0.93092304  0.49708657    -0.20400
F1209       F  0.35567461  0.98140185  0.46139418    -0.20100
F1210       F  0.51017859  0.90303509  0.45825126    -0.20100
F1211       F  0.52737516  0.95825840  0.42612050    -0.20500
F1212       F  0.47425560  0.88753536  0.41633890    -0.23100
C1213       C  0.48171895  0.04528370  0.13853929    -0.06000
C1214       C  0.51613982  0.05974109  0.15848579     0.00000
C1215       C  0.55991364  0.07875277  0.14834252    -0.08600
C1216       C  0.56790818  0.08584163  0.11872337    -0.06000
C1217       C  0.53390993  0.07465926  0.09883472    -0.00100
C1218       C  0.48948913  0.05194030  0.10879228    -0.08500
C1219       C  0.45021305  0.03547790  0.08875694     0.61900
H1220       H  0.44831616  0.02953478  0.14671415     0.12500
H1221       H  0.60145187  0.10118954  0.11092380     0.12600
C1222       C  0.59830512  0.09321562  0.16854356     0.62100
F1223       F  0.44844922  0.00320072  0.07005736    -0.23100
F1224       F  0.45375983  0.07121830  0.07336143    -0.20400
F1225       F  0.41060394  0.01597073  0.10361070    -0.20100
F1226       F  0.59225694  0.05660718  0.18411261    -0.20100
F1227       F  0.60098672  0.12613892  0.18683383    -0.20500
F1228       F  0.63810166  0.11076732  0.15408229    -0.23100
C1229       C  0.56090360  0.05391729  0.38823629    -0.06000
C1230       C  0.53362295  0.05996833  0.40767706     0.00000
C1231       C  0.50102172  0.06801360  0.39667672    -0.08600
C1232       C  0.50137671  0.07606569  0.36697144    -0.06000
C1233       C  0.53164443  0.07420334  0.34794327    -0.00100
C1234       C  0.56043055  0.06041907  0.35858838    -0.08500
C1235       C  0.59202412  0.05428816  0.33937346     0.61900
H1236       H  0.58381224  0.04493383  0.39669629     0.12500
H1237       H  0.47793571  0.08418263  0.35832325     0.12600
C1238       C  0.46635772  0.06848704  0.41583930     0.62100
F1239       F  0.61989865  0.04531209  0.35491765    -0.23100
F1240       F  0.61785526  0.09317655  0.32401794    -0.20400
F1241       F  0.56861673  0.01853457  0.32066125    -0.20100
F1242       F  0.48629116  0.10267568  0.43600674    -0.20100
F1243       F  0.44246826  0.02750521  0.42956044    -0.20500
F1244       F  0.43697191  0.07524979  0.40033178    -0.23100
C1245       C  0.76064149  0.28737743  0.46641547    -0.06000
C1246       C  0.78400224  0.30775854  0.99673670     0.00000
C1247       C  0.77161922  0.27488733  0.01798589    -0.08600
C1248       C  0.74111731  0.23050576  0.01058464    -0.06000
C1249       C  0.71792912  0.20889468  0.47922960    -0.00100
C1250       C  0.73206959  0.24240751  0.45812812    -0.08500
C1251       C  0.71641762  0.23037439  0.42730296     0.61900
H1252       H  0.76784558  0.31386574  0.45140426     0.12500
H1253       H  0.72795079  0.20636653  0.02741157     0.12600
C1254       C  0.78883785  0.28685034  0.04861481     0.62100
F1255       F  0.67132985  0.21152293  0.42591080    -0.23100
F1256       F  0.72712434  0.19957133  0.41683604    -0.20400
F1257       F  0.73593371  0.26778702  0.40971057    -0.20100
F1258       F  0.77279163  0.31167232  0.06171563    -0.20100
F1259       F  0.83435438  0.31200258  0.04836054    -0.20500
F1260       F  0.77611116  0.24883855  0.06498072    -0.23100
Fe1261     Fe  0.61387707  0.14442819  0.52273145     1.65800
Fe1262     Fe  0.52399845  0.06261027  0.00418304     1.73200
Fe1263     Fe  0.62031216  0.07376654  0.98006471     1.54400
O1264       O  0.67744577  0.13831026  0.97627484    -0.81900
O1265       O  0.52905193  0.00897976  0.01330708    -0.80200
O1266       O  0.64291784  0.17178272  0.48479567    -0.84400
O1267       O  0.66184537  0.12781273  0.53332659    -0.79200
O1268       O  0.59382966  0.08527482  0.94493859    -0.81000
O1269       O  0.51513766  0.06614301  0.54885560    -0.83700
C1270       C  0.67121318  0.09688444  0.52958032     0.97000
C1271       C  0.68161976  0.17667419  0.98050459     1.04500
O1272       O  0.58052021  0.08883948  0.50271295    -1.12700
O1273       O  0.51744169  0.11591447  0.99552281    -0.75200
O1274       O  0.57171556  0.16819294  0.51300446    -0.78600
O1275       O  0.64533837  0.06054643  0.51524659    -0.79300
C1276       C  0.53577771  0.15258156  0.49918220     0.95900
O1277       O  0.58390920  0.11737960  0.56090100    -0.77300
O1278       O  0.52354118  0.05584947  0.95865689    -0.82500
C1279       C  0.52726714  0.98980871  0.99021058     0.98500
C1280       C  0.55361559  0.07093536  0.93926397     1.04500
O1281       O  0.56400795  0.00478279  0.97688725    -0.78100
C1282       C  0.54482299  0.08776406  0.56776386     1.02800
Fe1283     Fe  0.52973673  0.15445259  0.77299531     1.65800
Fe1284     Fe  0.53642808  0.06496911  0.75499485     1.73200
Fe1285     Fe  0.45048812  0.07329271  0.73117633     1.54400
O1286       O  0.41430645  0.07536179  0.76759922    -0.81900
O1287       O  0.52981623  0.05584354  0.70972639    -0.80200
O1288       O  0.46653680  0.14386460  0.78294107    -0.84400
O1289       O  0.53069755  0.18294090  0.73466792    -0.79200
O1290       O  0.43697548  0.00366605  0.73098519    -0.81000
O1291       O  0.59666010  0.11603062  0.74461748    -0.83700
C1292       C  0.49551438  0.17581227  0.72304830     0.97000
C1293       C  0.42574699  0.11327605  0.78055996     1.04500
O1294       O  0.50582319  0.09786457  0.75326133    -1.12700
O1295       O  0.54688354  0.07484130  0.79880110    -0.75200
O1296       O  0.52959780  0.12615870  0.81197090    -0.78600
O1297       O  0.46070158  0.13715938  0.72291254    -0.79300
C1298       C  0.53908931  0.09628125  0.81805632     0.95900
O1299       O  0.59552700  0.17422879  0.76400613    -0.77300
O1300       O  0.47823394  0.01255349  0.76661994    -0.82500
C1301       C  0.51258866  0.06759776  0.68997352     0.98500
C1302       C  0.45825039  0.98951394  0.74538236     1.04500
O1303       O  0.48420872  0.07872325  0.69483863    -0.78100
C1304       C  0.61510305  0.15721603  0.75034668     1.02800
Fe1305     Fe  0.53641857  0.35060926  0.52191644     1.65800
Fe1306     Fe  0.54381423  0.44528045  0.99774931     1.73200
Fe1307     Fe  0.45738763  0.34329942  0.97747838     1.54400
O1308       O  0.46679280  0.28806725  0.97204035    -0.81900
O1309       O  0.48618076  0.44037036  0.00825667    -0.80200
O1310       O  0.53428694  0.31734530  0.48553157    -0.84400
O1311       O  0.47434231  0.29814013  0.53523686    -0.79200
O1312       O  0.48991991  0.36852991  0.94014416    -0.81000
O1313       O  0.55646195  0.45282284  0.54287766    -0.83700
C1314       C  0.43465742  0.28964976  0.53535316     0.97000
C1315       C  0.50220190  0.28691700  0.97260848     1.04500
O1316       O  0.51308981  0.38023555  0.99858957    -1.12700
O1317       O  0.60387396  0.45475673  0.98719802    -0.75200
O1318       O  0.60138051  0.39646908  0.51063853    -0.78600
O1319       O  0.42329889  0.31351377  0.52054282    -0.79300
C1320       C  0.62020752  0.43105945  0.49473210     0.95900
O1321       O  0.53882617  0.38474696  0.55852103    -0.77300
O1322       O  0.53502235  0.44129938  0.95241410    -0.82500
C1323       C  0.46277322  0.43573898  0.98712884     0.98500
C1324       C  0.51715456  0.40910417  0.93376550     1.04500
O1325       O  0.44291994  0.39719251  0.97460962    -0.78100
C1326       C  0.54753722  0.42477736  0.56310878     1.02800
Fe1327     Fe  0.61900004  0.43515261  0.76678061     1.65800
Fe1328     Fe  0.52420780  0.42699319  0.74844998     1.73200
Fe1329     Fe  0.62109643  0.51729303  0.72782155     1.54400
O1330       O  0.65568549  0.55201437  0.76553379    -0.81900
O1331       O  0.52421364  0.43994215  0.70372582    -0.80200
O1332       O  0.67070589  0.49915980  0.77881591    -0.84400
O1333       O  0.64864996  0.43712769  0.72895525    -0.79200
O1334       O  0.56492573  0.52919309  0.72840460    -0.81000
O1335       O  0.51719013  0.36835892  0.73534267    -0.83700
C1336       C  0.68009819  0.47430461  0.72046660     0.97000
C1337       C  0.68080365  0.54033449  0.77817453     1.04500
O1338       O  0.58794646  0.45969739  0.74803342    -1.12700
O1339       O  0.52040959  0.41091893  0.79205315    -0.75200
O1340       O  0.58895821  0.43220318  0.80474870    -0.78600
O1341       O  0.67653892  0.50928534  0.72031295    -0.79300
C1342       C  0.54943575  0.41991806  0.81124535     0.95900
O1343       O  0.57336493  0.36867396  0.75661298    -0.77300
O1344       O  0.52707879  0.48339576  0.76228551    -0.82500
C1345       C  0.55423490  0.45853712  0.68439578     0.98500
C1346       C  0.52763668  0.50609362  0.74157328     1.04500
O1347       O  0.59452652  0.48471068  0.69043725    -0.78100
C1348       C  0.53813174  0.34954037  0.74202261     1.02800
Fe1349     Fe  0.81576952  0.35833159  0.77445843     1.65800
Fe1350     Fe  0.90491250  0.45237496  0.75232851     1.73200
Fe1351     Fe  0.88880291  0.35028508  0.73195153     1.54400
O1352       O  0.88932327  0.31727964  0.76994215    -0.81900
O1353       O  0.91126725  0.44889172  0.70734477    -0.80200
O1354       O  0.82413857  0.30452837  0.78585154    -0.84400
O1355       O  0.78390800  0.32638546  0.73822888    -0.79200
O1356       O  0.95814283  0.40443216  0.72950943    -0.81000
O1357       O  0.85428538  0.46180617  0.74227751    -0.83700
C1358       C  0.78664710  0.29434193  0.72742510     0.97000
C1359       C  0.85325876  0.29308017  0.78422752     1.04500
O1360       O  0.86990390  0.38723457  0.75307172    -1.12700
O1361       O  0.89977967  0.45858041  0.79661214    -0.75200
O1362       O  0.84793168  0.39037238  0.81125151    -0.78600
O1363       O  0.82329952  0.29532478  0.72649883    -0.79300
C1364       C  0.88032558  0.42957058  0.81637142     0.95900
O1365       O  0.79742640  0.40553388  0.76454321    -0.77300
O1366       O  0.95830804  0.44874144  0.76278548    -0.82500
C1367       C  0.89794057  0.41729638  0.68840501     0.98500
C1368       C  0.97762177  0.44315838  0.74208349     1.04500
O1369       O  0.88333629  0.37638251  0.69455595    -0.78100
C1370       C  0.81423493  0.44089528  0.74924927     1.02800
Fe1371     Fe  0.81568474  0.43355471  0.52477941     1.65800
Fe1372     Fe  0.90630240  0.43260723  0.00213885     1.73200
Fe1373     Fe  0.89602401  0.51986004  0.97960811     1.54400
O1374       O  0.83077411  0.50685896  0.97287279    -0.81900
O1375       O  0.96278968  0.49010515  0.01209297    -0.80200
O1376       O  0.78392608  0.43024234  0.48818451    -0.84400
O1377       O  0.82526523  0.49666951  0.53453309    -0.79200
O1378       O  0.88922296  0.48377317  0.94340680    -0.81000
O1379       O  0.89345498  0.41342276  0.54644974    -0.83700
C1380       C  0.85516232  0.53801920  0.53303899     0.97000
C1381       C  0.79341768  0.47016303  0.97484826     1.04500
O1382       O  0.86948775  0.45765835  0.50307685    -1.12700
O1383       O  0.85199363  0.37320853  0.99176628    -0.75200
O1384       O  0.79505058  0.36649839  0.51836333    -0.78600
O1385       O  0.89158552  0.54990440  0.51952646    -0.79300
C1386       C  0.80764938  0.34621532  0.50167565     0.95900
O1387       O  0.84808207  0.43659727  0.56111216    -0.77300
O1388       O  0.91534430  0.44008887  0.95723709    -0.82500
C1389       C  0.98300367  0.51516511  0.99136357     0.98500
C1390       C  0.90332928  0.45743041  0.93773992     1.04500
O1391       O  0.96494941  0.53478107  0.97861340    -0.78100
C1392       C  0.87648316  0.42558173  0.56640591     1.02800
Fe1393     Fe  0.49192971  0.77890305  0.69469905     1.65800
Fe1394     Fe  0.57349656  0.76634330  0.67054681     1.73200
Fe1395     Fe  0.56897507  0.85777496  0.65163229     1.54400
O1396       O  0.50509319  0.84928373  0.64604710    -0.81900
O1397       O  0.62894906  0.82163593  0.68354574    -0.80200
O1398       O  0.45994671  0.77792399  0.65848918    -0.84400
O1399       O  0.50431738  0.84315084  0.70492754    -0.79200
O1400       O  0.56087294  0.82443626  0.61373097    -0.81000
O1401       O  0.56334786  0.75086939  0.71442625    -0.83700
C1402       C  0.53562454  0.88387384  0.70279951     0.97000
C1403       C  0.46639482  0.81424630  0.64779422     1.04500
O1404       O  0.54483114  0.80105591  0.67233001    -1.12700
O1405       O  0.51849253  0.70976773  0.65725581    -0.75200
O1406       O  0.46982674  0.71125862  0.68669606    -0.78600
O1407       O  0.57196152  0.89373856  0.68979061    -0.79300
C1408       C  0.48015332  0.69201461  0.66732917     0.95900
O1409       O  0.52464763  0.78077290  0.73106415    -0.77300
O1410       O  0.58603410  0.77922597  0.62592871    -0.82500
C1411       C  0.65077305  0.84508503  0.66275911     0.98500
C1412       C  0.57496257  0.79837276  0.60706406     1.04500
O1413       O  0.63666709  0.86874345  0.65055504    -0.78100
C1414       C  0.55040479  0.76596378  0.73509616     1.02800
Fe1415     Fe  0.48862351  0.68151501  0.93990580     1.65800
Fe1416     Fe  0.57424279  0.77993541  0.92039283     1.73200
Fe1417     Fe  0.56390693  0.68195788  0.89628225     1.54400
O1418       O  0.56472364  0.64429599  0.93152254    -0.81900
O1419       O  0.58805345  0.78334170  0.87574467    -0.80200
O1420       O  0.49839960  0.62785874  0.94768619    -0.84400
O1421       O  0.45871937  0.65519828  0.90194017    -0.79200
O1422       O  0.63232113  0.73810611  0.89720160    -0.81000
O1423       O  0.52065687  0.78322534  0.90785798    -0.83700
C1424       C  0.46186252  0.62363775  0.89096626     0.97000
C1425       C  0.52831773  0.61782926  0.94480614     1.04500
O1426       O  0.54324135  0.71474056  0.91967378    -1.12700
O1427       O  0.56198088  0.78131937  0.96517626    -0.75200
O1428       O  0.51831976  0.70939242  0.97789960    -0.78600
O1429       O  0.49915880  0.62626822  0.88898968    -0.79300
C1430       C  0.54290021  0.75060885  0.98435113     0.95900
O1431       O  0.46970327  0.72827667  0.93446911    -0.77300
O1432       O  0.62960611  0.78012385  0.93159677    -0.82500
C1433       C  0.57464156  0.75341387  0.85576353     0.98500
C1434       C  0.65020903  0.77620939  0.91077433     1.04500
O1435       O  0.55763300  0.71183063  0.86099772    -0.78100
C1436       C  0.48196803  0.76109244  0.91747535     1.02800
Fe1437     Fe  0.20600133  0.49215495  0.94310621     1.65800
Fe1438     Fe  0.20990816  0.40118856  0.92686535     1.73200
Fe1439     Fe  0.12300938  0.40979000  0.90437090     1.54400
O1440       O  0.08943813  0.41245062  0.94162003    -0.81900
O1441       O  0.19769920  0.38681490  0.88222198    -0.80200
O1442       O  0.14296284  0.48119157  0.95531529    -0.84400
O1443       O  0.20314919  0.51304143  0.90305236    -0.79200
O1444       O  0.10865293  0.33990831  0.90630956    -0.81000
O1445       O  0.26952930  0.45203083  0.91391677    -0.83700
C1446       C  0.16811413  0.51277431  0.89899327     0.97000
C1447       C  0.10193243  0.45094444  0.95385669     1.04500
O1448       O  0.17939946  0.43391329  0.92558118    -1.12700
O1449       O  0.22435050  0.41496026  0.97034846    -0.75200
O1450       O  0.20949325  0.46826816  0.98258266    -0.78600
O1451       O  0.13244832  0.47505752  0.89663629    -0.79300
C1452       C  0.21777404  0.43775147  0.98932469     0.95900
O1453       O  0.27112989  0.51207555  0.93247323    -0.77300
O1454       O  0.15291945  0.34897628  0.94070176    -0.82500
C1455       C  0.17986680  0.39721512  0.86223158     0.98500
C1456       C  0.13029706  0.32545265  0.92017997     1.04500
O1457       O  0.15434852  0.41226706  0.86703409    -0.78100
C1458       C  0.28925835  0.49364329  0.91891893     1.02800
Fe1459     Fe  0.27931307  0.48292202  0.69991705     1.65800
Fe1460     Fe  0.18476485  0.39650173  0.67568720     1.73200
Fe1461     Fe  0.28327402  0.41670246  0.64874622     1.54400
O1462       O  0.33525384  0.48404718  0.64543041    -0.81900
O1463       O  0.18830694  0.34042251  0.67855267    -0.80200
O1464       O  0.30649130  0.52191102  0.66503679    -0.84400
O1465       O  0.33419637  0.47507050  0.70450573    -0.79200
O1466       O  0.25482189  0.42889767  0.61565805    -0.81000
O1467       O  0.18233732  0.39600948  0.72104776    -0.83700
C1468       C  0.34616456  0.44677923  0.69829561     0.97000
C1469       C  0.33543480  0.52066873  0.64970534     1.04500
O1470       O  0.24883053  0.43150764  0.67516903    -1.12700
O1471       O  0.17571658  0.44954012  0.67268301    -0.75200
O1472       O  0.23150033  0.50092877  0.69818965    -0.78600
O1473       O  0.32095981  0.41155651  0.68267878    -0.79300
C1474       C  0.19623576  0.48790893  0.68419986     0.95900
O1475       O  0.25125135  0.44407163  0.73503023    -0.77300
O1476       O  0.18420787  0.39676922  0.62993099    -0.82500
C1477       C  0.19177783  0.32555829  0.65469295     0.98500
C1478       C  0.21453628  0.41379743  0.61058067     1.04500
O1479       O  0.22974746  0.34656127  0.64229427    -0.78100
C1480       C  0.21190143  0.41343112  0.74060093     1.02800
Fe1481     Fe  0.20598795  0.68695313  0.68854987     1.65800
Fe1482     Fe  0.21547734  0.78371044  0.67227281     1.73200
Fe1483     Fe  0.12398162  0.68676626  0.65320340     1.54400
O1484       O  0.12823696  0.62737532  0.64599805    -0.81900
O1485       O  0.16273871  0.78314172  0.68853406    -0.80200
O1486       O  0.19937252  0.66189619  0.64814756    -0.84400
O1487       O  0.14215353  0.63562340  0.70236250    -0.79200
O1488       O  0.15399269  0.71150651  0.61519183    -0.81000
O1489       O  0.23262655  0.78569920  0.71610362    -0.83700
C1490       C  0.10229108  0.62703393  0.70308133     0.97000
C1491       C  0.16344338  0.62565566  0.64652671     1.04500
O1492       O  0.18154123  0.71953064  0.67242922    -1.12700
O1493       O  0.27201421  0.78932801  0.65631075    -0.75200
O1494       O  0.27174925  0.73237874  0.67779512    -0.78600
O1495       O  0.09192598  0.65425985  0.69163145    -0.79300
C1496       C  0.29091348  0.76830300  0.66313303     0.95900
O1497       O  0.21201225  0.71519653  0.72772097    -0.77300
O1498       O  0.19715641  0.78338098  0.62810060    -0.82500
C1499       C  0.14038105  0.78433536  0.66860547     0.98500
C1500       C  0.17533257  0.75279442  0.60901654     1.04500
O1501       O  0.11595786  0.74671457  0.65504395    -0.78100
C1502       C  0.22197530  0.75480123  0.73484343     1.02800
Fe1503     Fe  0.28270065  0.77898881  0.94675662     1.65800
Fe1504     Fe  0.18976554  0.76697085  0.92232629     1.73200
Fe1505     Fe  0.28871294  0.84554416  0.89437032     1.54400
O1506       O  0.32355994  0.89397745  0.92656884    -0.81900
O1507       O  0.18955273  0.76591543  0.87639364    -0.80200
O1508       O  0.33517073  0.84579506  0.95098708    -0.84400
O1509       O  0.30876664  0.76616809  0.91209643    -0.79200
O1510       O  0.23481870  0.85885845  0.88694841    -0.81000
O1511       O  0.18002754  0.70389902  0.91916548    -0.83700
C1512       C  0.34381889  0.79970393  0.90398221     0.97000
C1513       C  0.34733975  0.88595581  0.94355558     1.04500
O1514       O  0.25328140  0.79796976  0.92202404    -1.12700
O1515       O  0.18738637  0.76527210  0.96790220    -0.75200
O1516       O  0.25639209  0.78954311  0.98154402    -0.78600
O1517       O  0.34357848  0.83471556  0.89560559    -0.79300
C1518       C  0.21735260  0.77848639  0.98726512     0.95900
O1519       O  0.23506955  0.71122858  0.94543285    -0.77300
O1520       O  0.19508072  0.82784070  0.92518906    -0.82500
C1521       C  0.22001864  0.77662782  0.85741107     0.98500
C1522       C  0.19859369  0.84524320  0.90109965     1.04500
O1523       O  0.26067665  0.79846333  0.86329565    -0.78100
C1524       C  0.19998034  0.68712647  0.93129655     1.02800
Fe1525     Fe  0.14225714  0.09867706  0.85538900     1.65800
Fe1526     Fe  0.23033194  0.09294988  0.83508380     1.73200
Fe1527     Fe  0.22140766  0.18214822  0.81531146     1.54400
O1528       O  0.15879381  0.17433258  0.80907361    -0.81900
O1529       O  0.28585173  0.15065868  0.84535737    -0.80200
O1530       O  0.11337299  0.10223096  0.81866695    -0.84400
O1531       O  0.15446255  0.16179385  0.86865320    -0.79200
O1532       O  0.21460077  0.14953615  0.77739529    -0.81000
O1533       O  0.22367966  0.08271135  0.87967178    -0.83700
C1534       C  0.18486280  0.20321818  0.86807296     0.97000
C1535       C  0.12049341  0.13916037  0.80857798     1.04500
O1536       O  0.19802432  0.12443259  0.83557847    -1.12700
O1537       O  0.17869984  0.03201327  0.82554493    -0.75200
O1538       O  0.12085615  0.03266271  0.84339682    -0.78600
O1539       O  0.22137284  0.21580943  0.85414711    -0.79300
C1540       C  0.13816924  0.01330715  0.83010866     0.95900
O1541       O  0.16966557  0.09434851  0.89311289    -0.77300
O1542       O  0.23596516  0.10064978  0.78938140    -0.82500
C1543       C  0.30628053  0.17468204  0.82448682     0.98500
C1544       C  0.22443504  0.12004606  0.77072239     1.04500
O1545       O  0.28940249  0.19567446  0.81248593    -0.78100
C1546       C  0.20119242  0.08816136  0.89923891     1.02800
Fe1547     Fe  0.12747988  0.01034906  0.60973087     1.65800
Fe1548     Fe  0.19841865  0.11127842  0.58512782     1.73200
Fe1549     Fe  0.21649106  0.02630073  0.57060650     1.54400
O1550       O  0.20611126  0.98109074  0.60529991    -0.81900
O1551       O  0.18671872  0.10061889  0.54117803    -0.80200
O1552       O  0.15190910  0.97751284  0.63250962    -0.84400
O1553       O  0.10503403  0.96133499  0.57931190    -0.79200
O1554       O  0.27860958  0.08267871  0.58562249    -0.81000
O1555       O  0.13841896  0.10453909  0.59279676    -0.83700
C1556       C  0.12052511  0.95029211  0.55829704     0.97000
C1557       C  0.17577672  0.96166483  0.62478084     1.04500
O1558       O  0.18152554  0.04848988  0.58896539    -1.12700
O1559       O  0.21159797  0.11793068  0.62885312    -0.75200
O1560       O  0.14823954  0.05829018  0.64303513    -0.78600
O1561       O  0.16116089  0.97163410  0.55134893    -0.79300
C1562       C  0.18644776  0.09224965  0.64876727     0.95900
O1563       O  0.09425072  0.03336608  0.58598740    -0.77300
O1564       O  0.26147348  0.13420256  0.57620583    -0.82500
C1565       C  0.20403660  0.08404208  0.52447828     0.98500
C1566       C  0.29007154  0.12393692  0.58051270     1.04500
O1567       O  0.22294510  0.06329846  0.53357510    -0.78100
C1568       C  0.10347281  0.07310723  0.58233455     1.02800
Fe1569     Fe  0.95470073  0.81950109  0.85672219     1.65800
Fe1570     Fe  0.85827675  0.73684214  0.83373279     1.73200
Fe1571     Fe  0.95321661  0.74216377  0.81136173     1.54400
O1572       O  0.00644462  0.80661211  0.80360917    -0.81900
O1573       O  0.85543082  0.67854720  0.84304469    -0.80200
O1574       O  0.98322824  0.85189118  0.81960462    -0.84400
O1575       O  0.00675502  0.80863001  0.86406994    -0.79200
O1576       O  0.92652628  0.74890986  0.77502586    -0.81000
O1577       O  0.85506952  0.74341202  0.87861033    -0.83700
C1578       C  0.01704325  0.77856810  0.86037036     0.97000
C1579       C  0.00961166  0.84494207  0.80503385     1.04500
O1580       O  0.92187927  0.76558520  0.83426068    -1.12700
O1581       O  0.85616860  0.79337200  0.82503745    -0.75200
O1582       O  0.91070891  0.84205616  0.85232197    -0.78600
O1583       O  0.99059003  0.74144231  0.84691518    -0.79300
C1584       C  0.87774252  0.83173050  0.83655242     0.95900
O1585       O  0.92447128  0.78590735  0.89376887    -0.77300
O1586       O  0.85819548  0.73009581  0.78825161    -0.82500
C1587       C  0.85945874  0.65724538  0.82261449     0.98500
C1588       C  0.88816539  0.74023102  0.76906129     1.04500
O1589       O  0.89766926  0.67313113  0.81092488    -0.78100
C1590       C  0.88368744  0.75896140  0.89878527     1.02800
Fe1591     Fe  0.87625152  0.82646022  0.60121027     1.65800
Fe1592     Fe  0.87698762  0.73413013  0.58433904     1.73200
Fe1593     Fe  0.78967457  0.74415945  0.56594014     1.54400
O1594       O  0.76034051  0.74800825  0.60494350    -0.81900
O1595       O  0.86077862  0.71893792  0.53951316    -0.80200
O1596       O  0.81451516  0.81778728  0.61582669    -0.84400
O1597       O  0.86986514  0.84532024  0.56127904    -0.79200
O1598       O  0.77534331  0.67408377  0.56705854    -0.81000
O1599       O  0.93610910  0.78275119  0.56935091    -0.83700
C1600       C  0.83526776  0.84644921  0.55897813     0.97000
C1601       C  0.77340730  0.78705249  0.61660103     1.04500
O1602       O  0.84767951  0.76801157  0.58458895    -1.12700
O1603       O  0.89482869  0.74843081  0.62751445    -0.75200
O1604       O  0.88169162  0.80280128  0.64034888    -0.78600
O1605       O  0.79856738  0.80934072  0.55885410    -0.79300
C1606       C  0.88856437  0.77114861  0.64677234     0.95900
O1607       O  0.94024625  0.84403295  0.58800680    -0.77300
O1608       O  0.82072960  0.68463163  0.60061696    -0.82500
C1609       C  0.84250240  0.73100103  0.52059482     0.98500
C1610       C  0.79783253  0.66036879  0.58058893     1.04500
O1611       O  0.81832950  0.74690344  0.52760100    -0.78100
C1612       C  0.95656820  0.82455813  0.57343490     1.02800
Fe1613     Fe  0.87380555  0.02783362  0.85257601     1.65800
Fe1614     Fe  0.87670306  0.12170508  0.83761952     1.73200
Fe1615     Fe  0.79083261  0.02169392  0.81484833     1.54400
O1616       O  0.80426411  0.96911976  0.80530830    -0.81900
O1617       O  0.82022942  0.11346944  0.85356428    -0.80200
O1618       O  0.87510963  0.00874622  0.81147451    -0.84400
O1619       O  0.81172812  0.96971813  0.86276362    -0.79200
O1620       O  0.82117773  0.05295838  0.77789797    -0.81000
O1621       O  0.89332631  0.12251405  0.88102512    -0.83700
C1622       C  0.77069057  0.95687588  0.86243197     0.97000
C1623       C  0.84160026  0.97158574  0.80621773     1.04500
O1624       O  0.84645176  0.05725977  0.83595677    -1.12700
O1625       O  0.93480858  0.13217160  0.82140933    -0.75200
O1626       O  0.93843321  0.07883971  0.84481252    -0.78600
O1627       O  0.75752404  0.98204716  0.85126329    -0.79300
C1628       C  0.95493246  0.11232754  0.82796619     0.95900
O1629       O  0.87246563  0.05185633  0.89248513    -0.77300
O1630       O  0.86139198  0.12401602  0.79358602    -0.82500
C1631       C  0.79684762  0.11298620  0.83357449     0.98500
C1632       C  0.84241541  0.09494398  0.77340863     1.04500
O1633       O  0.77487671  0.07562374  0.81936295    -0.78100
C1634       C  0.88223433  0.09147714  0.89969154     1.02800
Fe1635     Fe  0.94100809  0.10988672  0.61336836     1.65800
Fe1636     Fe  0.84703528  0.09540474  0.59003416     1.73200
Fe1637     Fe  0.94370456  0.17922245  0.56230831     1.54400
O1638       O  0.98564090  0.22407072  0.59555820    -0.81900
O1639       O  0.84271899  0.09576690  0.54420879    -0.80200
O1640       O  0.99679237  0.17301488  0.61629900    -0.84400
O1641       O  0.96516381  0.09644839  0.57778880    -0.79200
O1642       O  0.89049671  0.19484650  0.56055089    -0.81000
O1643       O  0.84104787  0.03433398  0.58312292    -0.83700
C1644       C  0.99034537  0.12459991  0.55909289     0.97000
C1645       C  0.01000309  0.21384026  0.61060244     1.04500
O1646       O  0.91066792  0.12843379  0.58852477    -1.12700
O1647       O  0.84578402  0.09130924  0.63517991    -0.75200
O1648       O  0.91603204  0.12416956  0.64863915    -0.78600
O1649       O  0.99268588  0.16239765  0.55554274    -0.79300
C1650       C  0.87607895  0.11089448  0.65414300     0.95900
O1651       O  0.89118887  0.04282368  0.61410783    -0.77300
O1652       O  0.85384404  0.15588203  0.59703834    -0.82500
C1653       C  0.87213300  0.10904814  0.52436982     0.98500
C1654       C  0.85326029  0.17308678  0.57385671     1.04500
O1655       O  0.91224488  0.13788175  0.52864746    -0.78100
C1656       C  0.86180469  0.01894943  0.59586569     1.02800
C1657       C  0.89739277  0.14809159  0.97337705    -0.06000
C1658       C  0.87530793  0.11055130  0.99155738     0.00000
C1659       C  0.85326973  0.06708124  0.97923101    -0.08600
C1660       C  0.85581531  0.06271475  0.94919066    -0.06000
C1661       C  0.87937156  0.10040994  0.93100004    -0.00100
C1662       C  0.89840454  0.14420375  0.94332505    -0.08500
C1663       C  0.92036279  0.18699289  0.92549184     0.61900
H1664       H  0.91612774  0.18108394  0.98316851     0.12500
H1665       H  0.83978024  0.02927569  0.93977976     0.12600
C1666       C  0.82989676  0.02560465  0.99785603     0.62100
F1667       F  0.93666281  0.22545734  0.94239174    -0.23100
F1668       F  0.88994703  0.18689997  0.90688471    -0.20400
F1669       F  0.95524158  0.18976548  0.91006227    -0.20100
F1670       F  0.85981546  0.02491372  0.01650172    -0.20100
F1671       F  0.94983134  0.07423835  0.49500684    -0.20500
F1672       F  0.79683693  0.02644475  0.01344971    -0.23100
C1673       C  0.82192753  0.08579793  0.69407424    -0.06000
C1674       C  0.86452122  0.11622846  0.68410204     0.00000
C1675       C  0.89557235  0.14926379  0.70354214    -0.08600
C1676       C  0.88590461  0.14421965  0.73313099    -0.06000
C1677       C  0.84545634  0.10933891  0.74326962    -0.00100
C1678       C  0.81124379  0.08341029  0.72331758    -0.08500
C1679       C  0.76361923  0.05182551  0.73199699     0.61900
H1680       H  0.79702168  0.06258873  0.67913222     0.12500
H1681       H  0.91117841  0.16543845  0.74850702     0.12600
C1682       C  0.93941387  0.18876973  0.69377638     0.62100
F1683       F  0.73595290  0.05645225  0.71326613    -0.23100
F1684       F  0.75467750  0.06113166  0.75936442    -0.20400
F1685       F  0.75431024  0.00781781  0.73074556    -0.20100
F1686       F  0.93416430  0.20653912  0.66860987    -0.20100
F1687       F  0.96936348  0.17485046  0.68940330    -0.20500
F1688       F  0.95655876  0.22294552  0.71421840    -0.23100
C1689       C  0.86688787  0.91186427  0.59103506    -0.06000
C1690       C  0.83843400  0.88921120  0.56786030     0.00000
C1691       C  0.81550766  0.90782082  0.55501497    -0.08600
C1692       C  0.82301474  0.94960987  0.56545716    -0.06000
C1693       C  0.85230457  0.97280068  0.58847253    -0.00100
C1694       C  0.87365639  0.95256387  0.60215078    -0.08500
C1695       C  0.90341438  0.97266384  0.62838780     0.61900
H1696       H  0.88406160  0.89698012  0.60079514     0.12500
H1697       H  0.80654186  0.96485120  0.55514413     0.12600
C1698       C  0.78521848  0.88481400  0.52967802     0.62100
F1699       F  0.91571285  0.94379262  0.63965880    -0.23100
F1700       F  0.88145720  0.98127137  0.64996371    -0.20400
F1701       F  0.94165880  0.01197771  0.62093935    -0.20100
F1702       F  0.75024845  0.84353485  0.53801482    -0.20100
F1703       F  0.80830494  0.87841304  0.50782709    -0.20500
F1704       F  0.76835569  0.91013248  0.51899612    -0.23100
C1705       C  0.84061410  0.86061662  0.80519681    -0.06000
C1706       C  0.86489444  0.86572248  0.83046494     0.00000
C1707       C  0.87792277  0.90408833  0.84816326    -0.08600
C1708       C  0.86796173  0.93621949  0.83910689    -0.06000
C1709       C  0.84547248  0.93215145  0.81330857    -0.00100
C1710       C  0.83179402  0.89382267  0.79575433    -0.08500
C1711       C  0.81235995  0.88853726  0.76596062     0.61900
H1712       H  0.82925171  0.83081980  0.79211438     0.12500
H1713       H  0.87950079  0.96629415  0.85205285     0.12600
C1714       C  0.90237002  0.91211526  0.87649384     0.62100
F1715       F  0.77687798  0.84523915  0.76238540    -0.23100
F1716       F  0.84428329  0.89619638  0.74574259    -0.20400
F1717       F  0.79795176  0.91813477  0.76077087    -0.20100
F1718       F  0.94511851  0.92244416  0.87119400    -0.20100
F1719       F  0.88083424  0.87417145  0.89350313    -0.20500
F1720       F  0.90466024  0.94763951  0.89206031    -0.23100
C1721       C  0.90318977  0.75096613  0.94872671    -0.06000
C1722       C  0.87024223  0.74585563  0.92948528     0.00000
C1723       C  0.82716968  0.73032926  0.94045576    -0.08600
C1724       C  0.82034804  0.72518872  0.97043122    -0.06000
C1725       C  0.85440699  0.73432842  0.98985752    -0.00100
C1726       C  0.89615003  0.74528402  0.97863949    -0.08500
C1727       C  0.93401850  0.75344873  0.99790085     0.61900
H1728       H  0.93541844  0.76076482  0.94015242     0.12500
H1729       H  0.78811363  0.71508246  0.97915765     0.12600
C1730       C  0.78856238  0.72019673  0.92115614     0.62100
F1731       F  0.97157321  0.76361474  0.98238376    -0.23100
F1732       F  0.89579749  0.68148844  0.50704402    -0.20400
F1733       F  0.93916109  0.75670318  0.51368086    -0.20100
F1734       F  0.78058817  0.68576655  0.90216257    -0.20100
F1735       F  0.79779071  0.75835459  0.90606175    -0.20500
F1736       F  0.75019220  0.70649775  0.93668015    -0.23100
C1737       C  0.89538099  0.72110225  0.71886856    -0.06000
C1738       C  0.87989734  0.74169333  0.73797096     0.00000
C1739       C  0.86547020  0.76967567  0.72689045    -0.08600
C1740       C  0.86875712  0.77778297  0.69717362    -0.06000
C1741       C  0.88654796  0.75934643  0.67794193    -0.00100
C1742       C  0.89895073  0.72909484  0.68901428    -0.08500
C1743       C  0.91665611  0.70570832  0.67009003     0.61900
H1744       H  0.90608293  0.69953064  0.72788919     0.12500
H1745       H  0.85786154  0.79955491  0.68885661     0.12600
C1746       C  0.84947237  0.79330107  0.74657172     0.62100
F1747       F  0.92907792  0.68038222  0.68598425    -0.23100
F1748       F  0.95338784  0.73741062  0.65512573    -0.20400
F1749       F  0.88444539  0.67672366  0.65102946    -0.20100
F1750       F  0.88315128  0.82125593  0.76510311    -0.20100
F1751       F  0.81327360  0.76181723  0.76203299    -0.20500
F1752       F  0.83701894  0.81917420  0.73145035    -0.23100
C1753       C  0.00491044  0.06648736  0.54451968    -0.06000
C1754       C  0.01972459  0.11257679  0.54380415     0.00000
C1755       C  0.06537666  0.14285134  0.54398203    -0.08600
C1756       C  0.09227405  0.12855122  0.55613029    -0.06000
C1757       C  0.07447386  0.08377847  0.56552401    -0.00100
C1758       C  0.03055352  0.05126102  0.55746506    -0.08500
C1759       C  0.00930079  0.00147963  0.56375612     0.61900
H1760       H  0.97012885  0.04319215  0.54097286     0.12500
H1761       H  0.12716421  0.15271306  0.55851845     0.12600
C1762       C  0.08643732  0.18893325  0.53060652     0.62100
F1763       F  0.96602629  0.97754718  0.55448649    -0.23100
F1764       F  0.00916682  0.99478063  0.59303501    -0.20400
F1765       F  0.03230106  0.98456799  0.54961740    -0.20100
F1766       F  0.10868140  0.22166724  0.55137793    -0.20100
F1767       F  0.05569605  0.19622436  0.51743524    -0.20500
F1768       F  0.11620099  0.19241891  0.50978129    -0.23100
C1769       C  0.05396728  0.91251972  0.53049268    -0.06000
C1770       C  0.08797621  0.90914369  0.54325425     0.00000
C1771       C  0.07684022  0.86847553  0.55700598    -0.08600
C1772       C  0.03324538  0.84071219  0.56678000    -0.06000
C1773       C  0.00068310  0.85101179  0.56015514    -0.00100
C1774       C  0.00980866  0.88340001  0.53867586    -0.08500
C1775       C  0.97313363  0.88673615  0.52456303     0.61900
H1776       H  0.06262694  0.94189535  0.51763359     0.12500
H1777       H  0.02479340  0.81199735  0.58025681     0.12600
C1778       C  0.11171464  0.85620688  0.56189668     0.62100
F1779       F  0.98876187  0.91826554  0.50277822    -0.23100
F1780       F  0.95242488  0.89899200  0.54471740    -0.20400
F1781       F  0.94269585  0.84538590  0.51286799    -0.20100
F1782       F  0.14580985  0.88887280  0.57815101    -0.20100
F1783       F  0.12840137  0.85289772  0.53558059    -0.20500
F1784       F  0.09470595  0.81540971  0.57585184    -0.23100
C1785       C  0.07415073  0.96337707  0.80082152    -0.06000
C1786       C  0.10992762  0.96892617  0.81696844     0.00000
C1787       C  0.11968775  0.93384910  0.81751257    -0.08600
C1788       C  0.08844887  0.89173873  0.80604698    -0.06000
C1789       C  0.04900601  0.88491949  0.79452835    -0.00100
C1790       C  0.04522421  0.92231290  0.78771918    -0.08500
C1791       C  0.00853575  0.91834645  0.76902344     0.61900
H1792       H  0.06904750  0.99141639  0.79822814     0.12500
H1793       H  0.09167226  0.86271443  0.80980868     0.12600
C1794       C  0.16074461  0.93947278  0.83179620     0.62100
F1795       F  0.02634984  0.95046127  0.74762987    -0.23100
F1796       F  0.97981753  0.92541405  0.78546769    -0.20400
F1797       F  0.98527520  0.87633389  0.75599971    -0.20100
F1798       F  0.19781731  0.97024692  0.81674065    -0.20100
F1799       F  0.16068514  0.89943418  0.83232157    -0.20500
F1800       F  0.16326030  0.95425827  0.85985762    -0.23100
C1801       C  0.19034198  0.10261296  0.95049132    -0.06000
C1802       C  0.21210795  0.08921389  0.93061245     0.00000
C1803       C  0.24316873  0.07836008  0.94147356    -0.08600
C1804       C  0.25059371  0.08112352  0.97140803    -0.06000
C1805       C  0.22764092  0.09297931  0.99091080    -0.00100
C1806       C  0.19678330  0.10365487  0.98038414    -0.08500
C1807       C  0.16870325  0.11318214  0.00078374     0.61900
H1808       H  0.16697110  0.11132213  0.94259599     0.12500
H1809       H  0.27318486  0.07191623  0.98018271     0.12600
C1810       C  0.26743084  0.06225770  0.92223548     0.62100
F1811       F  0.13937006  0.12124416  0.98630073    -0.23100
F1812       F  0.29929516  0.13311613  0.50339344    -0.20400
F1813       F  0.27114464  0.17806627  0.51015884    -0.20100
F1814       F  0.29485787  0.09605954  0.90350534    -0.20100
F1815       F  0.23737745  0.02444591  0.90690523    -0.20500
F1816       F  0.29334578  0.05070196  0.93786035    -0.23100
C1817       C  0.17801963  0.06389048  0.69886966    -0.06000
C1818       C  0.20140606  0.10009421  0.67968571     0.00000
C1819       C  0.23856403  0.14036542  0.69055527    -0.08600
C1820       C  0.24696042  0.14432508  0.72045697    -0.06000
C1821       C  0.22163384  0.10899289  0.73954050    -0.00100
C1822       C  0.18782975  0.06751655  0.72841903    -0.08500
C1823       C  0.16060496  0.02813644  0.74811647     0.61900
H1824       H  0.15125090  0.03232660  0.69065193     0.12500
H1825       H  0.27290468  0.17576254  0.72947969     0.12600
C1826       C  0.26948056  0.17922367  0.67125276     0.62100
F1827       F  0.12902482  0.99048549  0.73333286    -0.23100
F1828       F  0.13947731  0.04039212  0.76806219    -0.20400
F1829       F  0.18780666  0.01665402  0.76212014    -0.20100
F1830       F  0.24634332  0.19537476  0.65686825    -0.20100
F1831       F  0.28934066  0.16471717  0.65167515    -0.20500
F1832       F  0.30271796  0.21471837  0.68668639    -0.23100
C1833       C  0.07727534  0.17671188  0.81221080    -0.06000
C1834       C  0.08142243  0.14138667  0.80045646     0.00000
C1835       C  0.04323316  0.10214765  0.79035279    -0.08600
C1836       C  0.00204436  0.09452078  0.79896358    -0.06000
C1837       C  0.99810420  0.12684138  0.81480724    -0.00100
C1838       C  0.03541143  0.17038449  0.81863085    -0.08500
C1839       C  0.03082973  0.20897962  0.83000718     0.61900
H1840       H  0.10671691  0.20761339  0.81867796     0.12500
H1841       H  0.97272774  0.06248424  0.79391137     0.12600
C1842       C  0.04437772  0.06653176  0.77181087     0.62100
F1843       F  0.07140563  0.24715290  0.83528251    -0.23100
F1844       F  0.00676926  0.19667383  0.85522718    -0.20400
F1845       F  0.00896729  0.21954707  0.80991271    -0.20100
F1846       F  0.02580348  0.02658997  0.78680863    -0.20100
F1847       F  0.08667126  0.07870971  0.76344057    -0.20500
F1848       F  0.01997593  0.05980506  0.74718483    -0.23100
C1849       C  0.14047509  0.81246947  0.86199070    -0.06000
C1850       C  0.15564227  0.83732327  0.88796805     0.00000
C1851       C  0.12384290  0.84136868  0.90470086    -0.08600
C1852       C  0.07900747  0.81884739  0.89595309    -0.06000
C1853       C  0.06326547  0.79202214  0.87076023    -0.00100
C1854       C  0.09515965  0.78890191  0.85351830    -0.08500
C1855       C  0.08150323  0.76018328  0.82641944     0.61900
H1856       H  0.16427818  0.81007521  0.84866575     0.12500
H1857       H  0.05581801  0.82318715  0.90895655     0.12600
C1858       C  0.13556636  0.87007999  0.93181245     0.62100
F1859       F  0.11697013  0.76121747  0.81279860    -0.23100
F1860       F  0.06252731  0.77539297  0.80722530    -0.20400
F1861       F  0.05144601  0.71595233  0.83340249    -0.20100
F1862       F  0.18050257  0.89638319  0.93618499    -0.20100
F1863       F  0.11651886  0.84246867  0.95534414    -0.20500
F1864       F  0.11929792  0.89883866  0.92986505    -0.23100
C1865       C  0.11583592  0.83826567  0.65335893    -0.06000
C1866       C  0.15092200  0.83105689  0.65817823     0.00000
C1867       C  0.19504194  0.87026704  0.65482950    -0.08600
C1868       C  0.20052994  0.90985311  0.64205598    -0.06000
C1869       C  0.16589753  0.91738758  0.63827708    -0.00100
C1870       C  0.12250365  0.88129414  0.64585888    -0.08500
C1871       C  0.08297120  0.88756194  0.64683358     0.61900
H1872       H  0.08287024  0.81025313  0.65724568     0.12500
H1873       H  0.23321798  0.93701033  0.63636300     0.12600
C1874       C  0.23837112  0.87486596  0.66457713     0.62100
F1875       F  0.04464974  0.84853386  0.65469837    -0.23100
F1876       F  0.07606370  0.89987925  0.62021183    -0.20400
F1877       F  0.09020759  0.92046799  0.66690628    -0.20100
F1878       F  0.25557307  0.86008339  0.64341467    -0.20100
F1879       F  0.23382301  0.85293928  0.68977791    -0.20500
F1880       F  0.26974606  0.91950690  0.67027491    -0.23100
C1881       C  0.23129642  0.80795434  0.80938106    -0.06000
C1882       C  0.21054123  0.76925760  0.82649470     0.00000
C1883       C  0.19048821  0.72649578  0.81351866    -0.08600
C1884       C  0.19439460  0.72387485  0.78357377    -0.06000
C1885       C  0.21832338  0.76269928  0.76623959    -0.00100
C1886       C  0.23559212  0.80577273  0.77944405    -0.08500
C1887       C  0.25850566  0.84944426  0.76274017     0.61900
H1888       H  0.24587821  0.84041268  0.82013343     0.12500
H1889       H  0.17923986  0.69083620  0.77364714     0.12600
C1890       C  0.16708687  0.68413203  0.83139959     0.62100
F1891       F  0.27493864  0.88695346  0.78055570    -0.23100
F1892       F  0.22857575  0.85067973  0.74448293    -0.20400
F1893       F  0.29351907  0.85263671  0.74725335    -0.20100
F1894       F  0.13377529  0.68408684  0.84724868    -0.20100
F1895       F  0.19683028  0.68273211  0.84986625    -0.20500
F1896       F  0.14850860  0.64561336  0.81443742    -0.23100
C1897       C  0.20938005  0.80481033  0.56791267    -0.06000
C1898       C  0.17410184  0.76469725  0.57855049     0.00000
C1899       C  0.13924135  0.73580379  0.55935906    -0.08600
C1900       C  0.14574081  0.74357216  0.52960591    -0.06000
C1901       C  0.18428410  0.78037293  0.51889856    -0.00100
C1902       C  0.21389571  0.81398417  0.53839389    -0.08500
C1903       C  0.25250115  0.85817107  0.52843239     0.61900
H1904       H  0.23465000  0.82834191  0.58253528     0.12500
H1905       H  0.12239460  0.71880977  0.51458293     0.12600
C1906       C  0.09589712  0.69578067  0.56947055     0.62100
F1907       F  0.25997453  0.89242784  0.54746664    -0.23100
F1908       F  0.28343844  0.86591905  0.00971042    -0.20400
F1909       F  0.31444094  0.82565194  0.02318225    -0.20100
F1910       F  0.08117816  0.70700918  0.59404365    -0.20100
F1911       F  0.10129506  0.65964634  0.57494733    -0.20500
F1912       F  0.06342507  0.68247246  0.54880816    -0.23100
C1913       C  0.14977993  0.50959706  0.65639117    -0.06000
C1914       C  0.18006747  0.51937497  0.67906140     0.00000
C1915       C  0.19761044  0.56103695  0.69371452    -0.08600
C1916       C  0.19083230  0.59384825  0.68190692    -0.06000
C1917       C  0.16376156  0.58577903  0.65777744    -0.00100
C1918       C  0.14095636  0.54222959  0.64562734    -0.08500
C1919       C  0.10965937  0.53118614  0.62067294     0.61900
H1920       H  0.13447342  0.47680877  0.64618425     0.12500
H1921       H  0.20810753  0.62699802  0.69152156     0.12600
C1922       C  0.22414272  0.57221893  0.72135533     0.62100
F1923       F  0.09212212  0.48718689  0.61121101    -0.23100
F1924       F  0.13168784  0.55960052  0.59794225    -0.20400
F1925       F  0.07515765  0.53667652  0.62912877    -0.20100
F1926       F  0.26710493  0.58419375  0.71512538    -0.20100
F1927       F  0.20532118  0.53561682  0.73961414    -0.20500
F1928       F  0.22511525  0.60783552  0.73599249    -0.23100
C1929       C  0.13593441  0.30102381  0.61357019    -0.06000
C1930       C  0.14840128  0.29103655  0.64014472     0.00000
C1931       C  0.11403724  0.25570327  0.65636257    -0.08600
C1932       C  0.06956004  0.23549011  0.64731112    -0.06000
C1933       C  0.05660829  0.24684914  0.62151612    -0.00100
C1934       C  0.09094840  0.28066373  0.60439897    -0.08500
C1935       C  0.07991059  0.29575052  0.57682865     0.61900
H1936       H  0.16159791  0.32615367  0.60028348     0.12500
H1937       H  0.04439657  0.20865099  0.66029199     0.12600
C1938       C  0.12310056  0.23701454  0.68310100     0.62100
F1939       F  0.11719272  0.32882936  0.56307012    -0.23100
F1940       F  0.05302582  0.31295565  0.58311029    -0.20400
F1941       F  0.05817161  0.25977054  0.55807971    -0.20100
F1942       F  0.11103578  0.25191469  0.70716760    -0.20100
F1943       F  0.16699382  0.24966062  0.68529650    -0.20500
F1944       F  0.09866240  0.19040472  0.68235883    -0.23100
C1945       C  0.12736262  0.21966272  0.88830551    -0.06000
C1946       C  0.17285305  0.23555883  0.88266130     0.00000
C1947       C  0.20354500  0.28017601  0.89164237    -0.08600
C1948       C  0.18790969  0.30665997  0.90482593    -0.06000
C1949       C  0.14256467  0.29228708  0.90771772    -0.00100
C1950       C  0.11210904  0.24680362  0.90124295    -0.08500
C1951       C  0.06461902  0.22631969  0.91083040     0.61900
H1952       H  0.10318071  0.18522642  0.88269233     0.12500
H1953       H  0.21177623  0.33968151  0.91287344     0.12600
C1954       C  0.25269257  0.30011076  0.88757973     0.62100
F1955       F  0.03948403  0.18116769  0.90343654    -0.23100
F1956       F  0.04629995  0.24915148  0.89854114    -0.20400
F1957       F  0.06316375  0.22991094  0.94043731    -0.20100
F1958       F  0.26256610  0.30421737  0.85853285    -0.20100
F1959       F  0.26558976  0.27259831  0.90013043    -0.20500
F1960       F  0.27692741  0.34247001  0.89997933    -0.23100
C1961       C  0.22024847  0.39235007  0.56146165    -0.06000
C1962       C  0.20451450  0.41335554  0.57993241     0.00000
C1963       C  0.18902966  0.44013375  0.56850641    -0.08600
C1964       C  0.19136670  0.44645277  0.53858437    -0.06000
C1965       C  0.20898805  0.42701812  0.51985293    -0.00100
C1966       C  0.22266589  0.39824411  0.53157656    -0.08500
C1967       C  0.24073711  0.37439613  0.51337097     0.61900
H1968       H  0.23213107  0.37213215  0.57105416     0.12500
H1969       H  0.17957087  0.46715548  0.52971084     0.12600
C1970       C  0.17128800  0.46263752  0.58797190     0.62100
F1971       F  0.25469114  0.35106849  0.52999534    -0.23100
F1972       F  0.28401934  0.40520611  0.99638696    -0.20400
F1973       F  0.21505249  0.34415058  0.99394179    -0.20100
F1974       F  0.20309713  0.49025032  0.60768264    -0.20100
F1975       F  0.13461889  0.42989079  0.60243503    -0.20500
F1976       F  0.15912768  0.48868641  0.57267854    -0.23100
C1977       C  0.15365284  0.36831760  0.81322843    -0.06000
C1978       C  0.18936162  0.39279231  0.83189214     0.00000
C1979       C  0.23233241  0.41828125  0.82062564    -0.08600
C1980       C  0.23786463  0.42062363  0.79075793    -0.06000
C1981       C  0.20184332  0.40014725  0.77157109    -0.00100
C1982       C  0.15898501  0.37109424  0.78308071    -0.08500
C1983       C  0.11886568  0.34365747  0.76423466     0.61900
H1984       H  0.12106589  0.34860639  0.82258509     0.12500
H1985       H  0.27091390  0.44089886  0.78231907     0.12600
C1986       C  0.27175875  0.44619074  0.83994334     0.62100
F1987       F  0.08198748  0.31448849  0.78018471    -0.23100
F1988       F  0.12700254  0.31792901  0.74508874    -0.20400
F1989       F  0.10926594  0.37199437  0.74935808    -0.20100
F1990       F  0.27710589  0.41829694  0.85842560    -0.20100
F1991       F  0.26488998  0.47627248  0.85557008    -0.20500
F1992       F  0.31052585  0.47072864  0.82452141    -0.23100
C1993       C  0.19197025  0.57440867  0.93360063    -0.06000
C1994       C  0.16812200  0.55380013  0.90833044     0.00000
C1995       C  0.14770087  0.57363393  0.89357477    -0.08600
C1996       C  0.15613178  0.61620816  0.90308873    -0.06000
C1997       C  0.18357168  0.63852262  0.92697782    -0.00100
C1998       C  0.19840955  0.61526578  0.94396822    -0.08500
C1999       C  0.22197380  0.63307075  0.97256816     0.61900
H2000       H  0.20700462  0.55878574  0.94519618     0.12500
H2001       H  0.14284395  0.63315750  0.89107093     0.12600
C2002       C  0.11917112  0.55124479  0.86741199     0.62100
F2003       F  0.21999623  0.59883699  0.98895215    -0.23100
F2004       F  0.20234998  0.65219708  0.98846298    -0.20400
F2005       F  0.26588201  0.66467427  0.96781065    -0.20100
F2006       F  0.08237937  0.51117663  0.87530893    -0.20100
F2007       F  0.14263405  0.54278420  0.84690734    -0.20500
F2008       F  0.10491342  0.57783078  0.85514807    -0.23100
C2009       C  0.43367073  0.78444037  0.93642503    -0.06000
C2010       C  0.45107669  0.77647833  0.91182618     0.00000
C2011       C  0.43561718  0.77976851  0.88436062    -0.08600
C2012       C  0.40485039  0.79406282  0.88297783    -0.06000
C2013       C  0.38456119  0.79825862  0.90787215    -0.00100
C2014       C  0.39810163  0.79111965  0.93543248    -0.08500
C2015       C  0.37673926  0.78928860  0.96448088     0.61900
H2016       H  0.44695563  0.78271359  0.95700494     0.12500
H2017       H  0.39291091  0.79694637  0.86215145     0.12600
C2018       C  0.44637452  0.76475035  0.85628402     0.62100
F2019       F  0.38911022  0.76975397  0.98546478    -0.23100
F2020       F  0.33163194  0.76333298  0.96316958    -0.20400
F2021       F  0.38996949  0.83220927  0.97397552    -0.20100
F2022       F  0.46780125  0.80122678  0.83809729    -0.20100
F2023       F  0.47198316  0.74555757  0.85988033    -0.20500
F2024       F  0.40756441  0.73289546  0.84322528    -0.23100
C2025       C  0.68657630  0.82810307  0.86866576    -0.06000
C2026       C  0.68753326  0.81995368  0.89815333     0.00000
C2027       C  0.71784503  0.85725615  0.91549624    -0.08600
C2028       C  0.74297896  0.90106975  0.90327998    -0.06000
C2029       C  0.73901056  0.90993456  0.87427209    -0.00100
C2030       C  0.71100561  0.87193066  0.85649600    -0.08500
C2031       C  0.70843418  0.87646629  0.82430563     0.61900
H2032       H  0.66535714  0.79965704  0.85508661     0.12500
H2033       H  0.76595108  0.92916560  0.91659826     0.12600
C2034       C  0.72492373  0.85079892  0.94679057     0.62100
F2035       F  0.67550082  0.83724132  0.81170005    -0.23100
F2036       F  0.74755507  0.88555594  0.81205475    -0.20400
F2037       F  0.70041668  0.91063240  0.81812580    -0.20100
F2038       F  0.72710863  0.81219578  0.94974285    -0.20100
F2039       F  0.69069574  0.84723395  0.96340498    -0.20500
F2040       F  0.76393974  0.88670784  0.95708986    -0.23100
C2041       C  0.41171669  0.54477967  0.90360650    -0.06000
C2042       C  0.41974592  0.58133751  0.88632432     0.00000
C2043       C  0.38351343  0.58362210  0.87581603    -0.08600
C2044       C  0.34157879  0.55508600  0.88745359    -0.06000
C2045       C  0.33422713  0.52161875  0.90720192    -0.00100
C2046       C  0.36896124  0.51401749  0.91380835    -0.08500
C2047       C  0.36120651  0.47514194  0.93274308     0.61900
H2048       H  0.43957533  0.54301166  0.91136610     0.12500
H2049       H  0.31427890  0.55893190  0.88096202     0.12600
C2050       C  0.38841311  0.61741534  0.85346749     0.62100
F2051       F  0.39998886  0.47655502  0.93895544    -0.23100
F2052       F  0.33390143  0.43479621  0.91877963    -0.20400
F2053       F  0.34192186  0.47655617  0.95842478    -0.20100
F2054       F  0.43066109  0.64110657  0.84222731    -0.20100
F2055       F  0.37808690  0.64746846  0.86571364    -0.20500
F2056       F  0.35973152  0.59493650  0.83101402    -0.23100
C2057       C  0.41526472  0.57007969  0.64212520    -0.06000
C2058       C  0.37308424  0.56446613  0.64103847     0.00000
C2059       C  0.36879869  0.60299824  0.64122560    -0.08600
C2060       C  0.40452513  0.64388843  0.65044243    -0.06000
C2061       C  0.44568544  0.64853392  0.65543473    -0.00100
C2062       C  0.45248843  0.61251826  0.64810109    -0.08500
C2063       C  0.49805302  0.61827144  0.64707534     0.61900
H2064       H  0.41848270  0.54062356  0.64048582     0.12500
H2065       H  0.40030326  0.67261685  0.65349434     0.12600
C2066       C  0.32644497  0.60153339  0.63354223     0.62100
F2067       F  0.49621300  0.57784425  0.64180796    -0.23100
F2068       F  0.51960978  0.63552412  0.67283777    -0.20400
F2069       F  0.52224649  0.64751838  0.62516707    -0.20100
F2070       F  0.30593812  0.60413528  0.65831535    -0.20100
F2071       F  0.29787775  0.56256944  0.61857396    -0.20500
F2072       F  0.33587418  0.63772239  0.61620210    -0.23100
C2073       C  0.67010817  0.78635444  0.64874509    -0.06000
C2074       C  0.68303750  0.83261719  0.64926984     0.00000
C2075       C  0.72611651  0.86348521  0.63951168    -0.08600
C2076       C  0.75430383  0.84731971  0.62997086    -0.06000
C2077       C  0.74098062  0.80070489  0.62881600    -0.00100
C2078       C  0.69719076  0.76981514  0.63812162    -0.08500
C2079       C  0.67854841  0.71929670  0.63707745     0.61900
H2080       H  0.63749573  0.76240323  0.65659587     0.12500
H2081       H  0.78715110  0.87157145  0.62274731     0.12600
C2082       C  0.74220168  0.91333715  0.63978286     0.62100
F2083       F  0.63708834  0.69549696  0.64948817    -0.23100
F2084       F  0.70596191  0.70880500  0.65177696    -0.20400
F2085       F  0.67478516  0.70513296  0.60876783    -0.20100
F2086       F  0.73689269  0.92663601  0.66694096    -0.20100
F2087       F  0.71823174  0.92200768  0.62022710    -0.20500
F2088       F  0.78621542  0.93886870  0.63258132    -0.23100
C2089       C  0.56674474  0.80018590  0.78396646    -0.06000
C2090       C  0.56533593  0.76710818  0.76514450     0.00000
C2091       C  0.57693552  0.73635166  0.77585131    -0.08600
C2092       C  0.58303063  0.73577918  0.80557672    -0.06000
C2093       C  0.57904486  0.76526572  0.82482118    -0.00100
C2094       C  0.57468488  0.80067030  0.81364865    -0.08500
C2095       C  0.57854102  0.83872042  0.83250599     0.61900
H2096       H  0.56095692  0.82560799  0.77522820     0.12500
H2097       H  0.58959955  0.71087210  0.81427159     0.12600
C2098       C  0.58141103  0.70315822  0.75657199     0.62100
F2099       F  0.61941817  0.86114448  0.84540527    -0.23100
F2100       F  0.54680591  0.82213740  0.85368656    -0.20400
F2101       F  0.57373583  0.86976819  0.81684397    -0.20100
F2102       F  0.61530278  0.72636023  0.73706892    -0.20100
F2103       F  0.54244266  0.67641602  0.74204488    -0.20500
F2104       F  0.59087468  0.67508448  0.77197849    -0.23100
C2105       C  0.56038845  0.74404336  0.56791139    -0.06000
C2106       C  0.57652802  0.78880770  0.57611161     0.00000
C2107       C  0.58752928  0.82166999  0.55452780    -0.08600
C2108       C  0.57547275  0.80737671  0.52591437    -0.06000
C2109       C  0.55612953  0.76189311  0.51769634    -0.00100
C2110       C  0.55102534  0.72988301  0.53902525    -0.08500
C2111       C  0.53593163  0.68090002  0.53208906     0.61900
H2112       H  0.55305093  0.71957467  0.58463484     0.12500
H2113       H  0.58164461  0.83239562  0.50979411     0.12600
C2114       C  0.61272949  0.87210144  0.56029789     0.62100
F2115       F  0.54062167  0.65903429  0.55537252    -0.23100
F2116       F  0.45959392  0.66797187  0.01727475    -0.20400
F2117       F  0.49187180  0.65775281  0.52457564    -0.20100
F2118       F  0.63156676  0.88325800  0.58731311    -0.20100
F2119       F  0.58467168  0.88861605  0.55737065    -0.20500
F2120       F  0.64665490  0.89313756  0.54050614    -0.23100
C2121       C  0.34840061  0.76976663  0.63128264    -0.06000
C2122       C  0.33755464  0.78782342  0.65489441     0.00000
C2123       C  0.37134816  0.82425821  0.67056150    -0.08600
C2124       C  0.41546505  0.83770763  0.66445969    -0.06000
C2125       C  0.42622142  0.81609836  0.64296838    -0.00100
C2126       C  0.39267056  0.78413924  0.62473540    -0.08500
C2127       C  0.40421745  0.76547470  0.59867406     0.61900
H2128       H  0.32201024  0.74340138  0.61862268     0.12500
H2129       H  0.44141780  0.86206664  0.67827295     0.12600
C2130       C  0.36027731  0.84692913  0.69455928     0.62100
F2131       F  0.36783517  0.73979713  0.58143269    -0.23100
F2132       F  0.42079447  0.73883319  0.60712439    -0.20400
F2133       F  0.43573104  0.80084698  0.58244436    -0.20100
F2134       F  0.33420441  0.81546840  0.71495274    -0.20100
F2135       F  0.33788095  0.86647289  0.68340743    -0.20500
F2136       F  0.39756800  0.88018914  0.70812126    -0.23100
C2137       C  0.79696296  0.55559163  0.54903500    -0.06000
C2138       C  0.84266413  0.57086009  0.54581427     0.00000
C2139       C  0.87294183  0.61483473  0.55594984    -0.08600
C2140       C  0.85662848  0.64205856  0.56702099    -0.06000
C2141       C  0.81106710  0.62786257  0.56824440    -0.00100
C2142       C  0.78103983  0.58265644  0.56099384    -0.08500
C2143       C  0.73385486  0.56672141  0.05979014     0.61900
H2144       H  0.77808329  0.53062278  0.03321606     0.12500
H2145       H  0.88013088  0.67525625  0.57492623     0.12600
C2146       C  0.92217000  0.63270294  0.55601447     0.62100
F2147       F  0.71144110  0.52202618  0.05113870    -0.23100
F2148       F  0.71772507  0.58980458  0.04514166    -0.20400
F2149       F  0.72600393  0.56802420  0.08887660    -0.20100
F2150       F  0.93754666  0.63721275  0.52809686    -0.20100
F2151       F  0.93056843  0.60324174  0.57062183    -0.20500
F2152       F  0.94556217  0.67444832  0.56934706    -0.23100
C2153       C  0.01316546  0.48536790  0.95317933    -0.06000
C2154       C  0.02065699  0.51009302  0.97900721     0.00000
C2155       C  0.05624172  0.51556825  0.99630139    -0.08600
C2156       C  0.08074541  0.49476831  0.98790853    -0.06000
C2157       C  0.06969983  0.46571275  0.96373854    -0.00100
C2158       C  0.03438309  0.46063923  0.94630785    -0.08500
C2159       C  0.01682809  0.42714961  0.92142465     0.61900
H2160       H  0.98844588  0.48326589  0.93888952     0.12500
H2161       H  0.10888284  0.50080510  0.00054971     0.12600
C2162       C  0.07000222  0.54573796  0.02278734     0.62100
F2163       F  0.98479004  0.42964381  0.90616669    -0.23100
F2164       F  0.99880189  0.38399454  0.93205664    -0.20400
F2165       F  0.04960555  0.43485070  0.90219495    -0.20100
F2166       F  0.03668043  0.52848192  0.04308923    -0.20100
F2167       F  0.07921460  0.58823076  0.01502162    -0.20500
F2168       F  0.10730182  0.54997492  0.03542401    -0.23100
C2169       C  0.79518224  0.21598092  0.80208337    -0.06000
C2170       C  0.84072807  0.24792777  0.79781698     0.00000
C2171       C  0.87114339  0.23565479  0.80734507    -0.08600
C2172       C  0.85498867  0.19270050  0.81996967    -0.06000
C2173       C  0.80952506  0.15920907  0.82161846    -0.00100
C2174       C  0.77942781  0.17275706  0.81443091    -0.08500
C2175       C  0.73161270  0.14371158  0.82284082     0.61900
H2176       H  0.77141098  0.22516482  0.79582246     0.12500
H2177       H  0.87859397  0.18474879  0.82829174     0.12600
C2178       C  0.92050782  0.26745185  0.80444598     0.62100
F2179       F  0.70813039  0.16445326  0.81638232    -0.23100
F2180       F  0.72859014  0.13644769  0.85219586    -0.20400
F2181       F  0.71304949  0.10268669  0.80867563    -0.20100
F2182       F  0.93250250  0.30856341  0.81706698    -0.20100
F2183       F  0.93205429  0.27349296  0.77565071    -0.20500
F2184       F  0.94423537  0.25084454  0.81762632    -0.23100
C2185       C  0.00906890  0.50263628  0.70407840    -0.06000
C2186       C  0.01634249  0.48590903  0.72969524     0.00000
C2187       C  0.05228289  0.51745786  0.74705586    -0.08600
C2188       C  0.07835651  0.56326726  0.73839030    -0.06000
C2189       C  0.06818128  0.58053565  0.71412214    -0.00100
C2190       C  0.03110181  0.54940048  0.69753124    -0.08500
C2191       C  0.01274409  0.56543607  0.67408906     0.61900
H2192       H  0.98384635  0.47907965  0.68978193     0.12500
H2193       H  0.10697233  0.58611476  0.75107490     0.12600
C2194       C  0.06484904  0.50431216  0.77482445     0.62100
F2195       F  0.00274350  0.59615910  0.68568756    -0.23100
F2196       F  0.97454484  0.53038318  0.66228731    -0.20400
F2197       F  0.04285900  0.58561819  0.65216104    -0.20100
F2198       F  0.04204535  0.45825160  0.77905269    -0.20100
F2199       F  0.05646623  0.52469562  0.79773468    -0.20500
F2200       F  0.10934413  0.51888032  0.77433338    -0.23100
C2201       C  0.88608386  0.40281961  0.86427531    -0.06000
C2202       C  0.89573022  0.43984147  0.84670372     0.00000
C2203       C  0.91831213  0.48373583  0.85889285    -0.08600
C2204       C  0.92319586  0.48779236  0.88891577    -0.06000
C2205       C  0.90763779  0.44999067  0.90678818    -0.00100
C2206       C  0.89203088  0.40707850  0.89420064    -0.08500
C2207       C  0.87771302  0.36527105  0.91200607     0.61900
H2208       H  0.87177776  0.36971263  0.85448892     0.12500
H2209       H  0.93759194  0.52074778  0.89895969     0.12600
C2210       C  0.93637433  0.52603149  0.84088637     0.62100
F2211       F  0.84133786  0.35666464  0.92785601    -0.23100
F2212       F  0.91073625  0.37123208  0.93044037    -0.20400
F2213       F  0.86680741  0.32783727  0.89502298    -0.20100
F2214       F  0.90249987  0.52610131  0.82626032    -0.20100
F2215       F  0.96708290  0.52771369  0.82149731    -0.20500
F2216       F  0.95721116  0.56480435  0.85758502    -0.23100
C2217       C  0.87258524  0.44791289  0.61652332    -0.06000
C2218       C  0.88890239  0.42778702  0.59735066     0.00000
C2219       C  0.91467824  0.41064332  0.60869024    -0.08600
C2220       C  0.91921611  0.41066553  0.63879868    -0.06000
C2221       C  0.89958238  0.42746467  0.65758839    -0.00100
C2222       C  0.87668462  0.44727312  0.64636093    -0.08500
C2223       C  0.85347129  0.46421029  0.66579452     0.61900
H2224       H  0.85477676  0.46306536  0.60812995     0.12500
H2225       H  0.93697471  0.39602157  0.64814082     0.12600
C2226       C  0.93688619  0.39188230  0.58976366     0.62100
F2227       F  0.83059468  0.47978628  0.65043385    -0.23100
F2228       F  0.88383881  0.49917550  0.68290393    -0.20400
F2229       F  0.82363442  0.42926489  0.68289084    -0.20100
F2230       F  0.96556264  0.42458322  0.57081825    -0.20100
F2231       F  0.90551468  0.35472740  0.57461547    -0.20500
F2232       F  0.96108342  0.37847478  0.60570028    -0.23100
C2233       C  0.73881400  0.56214246  0.81613108    -0.06000
C2234       C  0.72585343  0.57364337  0.79043079     0.00000
C2235       C  0.75955206  0.60936903  0.77401062    -0.08600
C2236       C  0.80410699  0.63002743  0.78309787    -0.06000
C2237       C  0.81673856  0.62060780  0.80955132    -0.00100
C2238       C  0.78296125  0.58544644  0.82626464    -0.08500
C2239       C  0.79183923  0.57026817  0.85462737     0.61900
H2240       H  0.71394697  0.53407464  0.82853134     0.12500
H2241       H  0.82964562  0.65471383  0.76952348     0.12600
C2242       C  0.74895380  0.62662145  0.74717779     0.62100
F2243       F  0.77631268  0.52453211  0.85322897    -0.23100
F2244       F  0.76991489  0.57831798  0.87648053    -0.20400
F2245       F  0.83615136  0.59192586  0.86134429    -0.20100
F2246       F  0.71930432  0.64014369  0.75399393    -0.20100
F2247       F  0.73111842  0.59348532  0.72636319    -0.20500
F2248       F  0.78602772  0.66313676  0.73550464    -0.23100
C2249       C  0.44976830  0.44608716  0.72696166    -0.06000
C2250       C  0.48236629  0.49271512  0.72881541     0.00000
C2251       C  0.46842686  0.52321528  0.72196243    -0.08600
C2252       C  0.42487221  0.50664194  0.71123776    -0.06000
C2253       C  0.39278033  0.45995803  0.70831186    -0.00100
C2254       C  0.40593734  0.42929516  0.71681097    -0.08500
C2255       C  0.37331732  0.37899793  0.71645670     0.61900
H2256       H  0.45864318  0.42215786  0.73412072     0.12500
H2257       H  0.41525199  0.53067470  0.70555057     0.12600
C2258       C  0.49812320  0.57275534  0.72857010     0.62100
F2259       F  0.33643715  0.36967559  0.73244793    -0.23100
F2260       F  0.39097082  0.35494875  0.72803801    -0.20400
F2261       F  0.36097660  0.36430895  0.68846204    -0.20100
F2262       F  0.53661087  0.58984820  0.71274701    -0.20100
F2263       F  0.50835733  0.57840496  0.75755571    -0.20500
F2264       F  0.47789554  0.59691971  0.72227316    -0.23100
C2265       C  0.75948301  0.50881796  0.73197322    -0.06000
C2266       C  0.72275566  0.47643061  0.71622163     0.00000
C2267       C  0.72248104  0.43753061  0.70625163    -0.08600
C2268       C  0.75231075  0.42688638  0.71813312    -0.06000
C2269       C  0.78544222  0.45621175  0.73707967    -0.00100
C2270       C  0.79228648  0.49995105  0.74142093    -0.08500
C2271       C  0.83324223  0.53623891  0.75643288     0.61900
H2272       H  0.76061443  0.53936821  0.73880952     0.12500
H2273       H  0.75087761  0.39612671  0.71178302     0.12600
C2274       C  0.69022584  0.40601498  0.68382534     0.62100
F2275       F  0.83372953  0.57630933  0.75811268    -0.23100
F2276       F  0.87030135  0.54441183  0.74112765    -0.20400
F2277       F  0.83534952  0.52274754  0.78397052    -0.20100
F2278       F  0.66030019  0.36555437  0.69639892    -0.20100
F2279       F  0.71297257  0.39812959  0.66243951    -0.20500
F2280       F  0.66749067  0.42403770  0.67103214    -0.23100
C2281       C  0.33979822  0.20683691  0.58469149    -0.06000
C2282       C  0.33600479  0.16481919  0.57766322     0.00000
C2283       C  0.36982025  0.16602905  0.56059073    -0.08600
C2284       C  0.40297794  0.20798960  0.54894232    -0.06000
C2285       C  0.40150015  0.24818324  0.55179901    -0.00100
C2286       C  0.37038150  0.24778129  0.57121664    -0.08500
C2287       C  0.36907428  0.29024011  0.57756800     0.61900
H2288       H  0.31503555  0.20654129  0.59871362     0.12500
H2289       H  0.44427738  0.21581765  0.03759659     0.12600
C2290       C  0.37001077  0.12313286  0.55413331     0.62100
F2291       F  0.33973526  0.28393463  0.59948562    -0.23100
F2292       F  0.35612656  0.30306388  0.55325127    -0.20400
F2293       F  0.41037422  0.32458943  0.58583929    -0.20100
F2294       F  0.38892987  0.11045026  0.08292688    -0.20100
F2295       F  0.40700196  0.13148468  0.53868335    -0.20500
F2296       F  0.37192412  0.09473374  0.03596920    -0.23100
C2297       C  0.66963003  0.41160538  0.46978247    -0.06000
C2298       C  0.66408038  0.44508865  0.48277924     0.00000
C2299       C  0.70179677  0.49353120  0.98018055    -0.08600
C2300       C  0.74457574  0.50196381  0.97383776    -0.06000
C2301       C  0.75157217  0.46668060  0.96627026    -0.00100
C2302       C  0.71097606  0.42091816  0.46017411    -0.08500
C2303       C  0.71392211  0.38442836  0.44376282     0.61900
H2304       H  0.64138262  0.37791157  0.46697087     0.12500
H2305       H  0.77291976  0.53554131  0.97641862     0.12600
C2306       C  0.69470010  0.53302369  0.98442972     0.62100
F2307       F  0.68569418  0.37075612  0.42047279    -0.23100
F2308       F  0.70150524  0.34789370  0.46145528    -0.20400
F2309       F  0.75597272  0.39938002  0.43336108    -0.20100
F2310       F  0.66931783  0.52731186  0.00848411    -0.20100
F2311       F  0.67334559  0.53646447  0.96075775    -0.20500
F2312       F  0.73424902  0.57333623  0.98737756    -0.23100
C2313       C  0.48975013  0.49163215  0.94679135    -0.06000
C2314       C  0.46965901  0.47880977  0.97411832     0.00000
C2315       C  0.47029135  0.51300480  0.99163877    -0.08600
C2316       C  0.49322215  0.55831537  0.98231308    -0.06000
C2317       C  0.51573993  0.57165940  0.95574903    -0.00100
C2318       C  0.51435177  0.53733228  0.93780292    -0.08500
C2319       C  0.53892650  0.54857973  0.90932558     0.61900
H2320       H  0.48706364  0.46556040  0.93259649     0.12500
H2321       H  0.49241102  0.58370147  0.99576113     0.12600
C2322       C  0.44579996  0.50280773  0.02004706     0.62100
F2323       F  0.53653930  0.51113538  0.89647779    -0.23100
F2324       F  0.58294710  0.58005325  0.91373233    -0.20400
F2325       F  0.52131560  0.56561331  0.89047863    -0.20100
F2326       F  0.47576129  0.51811182  0.04237095    -0.20100
F2327       F  0.41623583  0.45725382  0.02352658    -0.25900
F2328       F  0.42208824  0.52456929  0.02136372    -0.23100
C2329       C  0.51558148  0.40210473  0.61158690    -0.06000
C2330       C  0.54497303  0.43726884  0.59341846     0.00000
C2331       C  0.57096283  0.48128724  0.60498786    -0.08600
C2332       C  0.56963137  0.48718418  0.63485064    -0.06000
C2333       C  0.54369280  0.45087037  0.65333842    -0.00100
C2334       C  0.51448618  0.40792113  0.64141078    -0.08500
C2335       C  0.48468420  0.36754921  0.65990812     0.61900
H2336       H  0.49447563  0.36904347  0.60228747     0.12500
H2337       H  0.59064115  0.52020567  0.64429163     0.12600
C2338       C  0.60144215  0.52143138  0.58647738     0.62100
F2339       F  0.45889287  0.32914455  0.64361713    -0.23100
F2340       F  0.45667681  0.37616951  0.67595873    -0.20400
F2341       F  0.51016488  0.35873934  0.67792355    -0.20100
F2342       F  0.57690407  0.53007967  0.56739159    -0.20100
F2343       F  0.62988272  0.51238250  0.57141999    -0.20500
F2344       F  0.62662865  0.56007970  0.60271172    -0.23100
C2345       C  0.49277669  0.40877186  0.88424497    -0.06000
C2346       C  0.52735581  0.41775773  0.90296086     0.00000
C2347       C  0.56779769  0.42583771  0.89170834    -0.08600
C2348       C  0.57279241  0.42554565  0.86187154    -0.06000
C2349       C  0.53864322  0.41718167  0.84260927    -0.00100
C2350       C  0.49755181  0.40866857  0.85410162    -0.08500
C2351       C  0.45867207  0.39919251  0.83526207     0.61900
H2352       H  0.46156373  0.40108986  0.89365593     0.12500
H2353       H  0.60408963  0.43187291  0.85352102     0.12600
C2354       C  0.60530214  0.43396578  0.91126713     0.62100
F2355       F  0.42249112  0.39188453  0.85137645    -0.23100
F2356       F  0.44593214  0.36097919  0.81871606    -0.20400
F2357       F  0.47018278  0.43561227  0.81763718    -0.20100
F2358       F  0.59147548  0.39815652  0.92983755    -0.20100
F2359       F  0.61846694  0.47292772  0.92684635    -0.20500
F2360       F  0.64140689  0.43893435  0.89611545    -0.23100
C2361       C  0.40266629  0.15195322  0.81763713    -0.06000
C2362       C  0.39269469  0.12638769  0.79183020     0.00000
C2363       C  0.35746308  0.12313493  0.77504903    -0.08600
C2364       C  0.33454963  0.14513584  0.78452019    -0.06000
C2365       C  0.34217829  0.16745794  0.81133016    -0.00100
C2366       C  0.37782349  0.17150256  0.82784254    -0.08500
C2367       C  0.39133762  0.19913539  0.85544495     0.61900
H2368       H  0.43054222  0.15660265  0.83000226     0.12500
H2369       H  0.30969365  0.14430214  0.77090845     0.12600
C2370       C  0.34385204  0.09681053  0.74695109     0.62100
F2371       F  0.42976210  0.20412108  0.86667436    -0.23100
F2372       F  0.35865567  0.17867898  0.87600476    -0.20400
F2373       F  0.39841545  0.24161328  0.84993533    -0.20100
F2374       F  0.33229155  0.05270402  0.75181893    -0.20100
F2375       F  0.37812731  0.11594839  0.72746557    -0.20500
F2376       F  0.30799708  0.09617984  0.73463867    -0.23100
C2377       C  0.66628956  0.22606524  0.72513471    -0.06000
C2378       C  0.65960147  0.18711956  0.73845690     0.00000
C2379       C  0.69393698  0.17702452  0.73758076    -0.08600
C2380       C  0.73674353  0.21178014  0.72989665    -0.06000
C2381       C  0.74420235  0.25354545  0.72034045    -0.00100
C2382       C  0.70738995  0.25793572  0.71428683    -0.08500
C2383       C  0.71010998  0.29726601  0.69857376     0.61900
H2384       H  0.63890461  0.23164943  0.72297699     0.12500
H2385       H  0.76476118  0.20762327  0.73317220     0.12600
C2386       C  0.68582268  0.13056544  0.74452040     0.62100
F2387       F  0.68124746  0.28137608  0.67564151    -0.23100
F2388       F  0.75175655  0.32648626  0.68777234    -0.20400
F2389       F  0.69771270  0.32000753  0.71737830    -0.20100
F2390       F  0.72468828  0.12999568  0.74538608    -0.20100
F2391       F  0.65934588  0.10027273  0.72356460    -0.20500
F2392       F  0.66502053  0.11642928  0.77077078    -0.23100
C2393       C  0.48756494  0.96119292  0.70534379    -0.06000
C2394       C  0.47319889  0.95773154  0.73405322     0.00000
C2395       C  0.48357842  0.93214326  0.75294974    -0.08600
C2396       C  0.50724389  0.91170943  0.74241057    -0.06000
C2397       C  0.52445742  0.91816982  0.71419302    -0.00100
C2398       C  0.51569418  0.94541159  0.69575324    -0.08500
C2399       C  0.53569989  0.96045003  0.66600697     0.61900
H2400       H  0.47891711  0.97895491  0.69038173     0.12500
H2401       H  0.51236022  0.88988746  0.75633932     0.12600
C2402       C  0.46859376  0.92505124  0.78418873     0.62100
F2403       F  0.55876931  0.00699447  0.66527336    -0.23100
F2404       F  0.50258959  0.94411312  0.64568598    -0.20400
F2405       F  0.56487774  0.94688206  0.65845319    -0.20100
F2406       F  0.42517857  0.91431962  0.78602150    -0.20100
F2407       F  0.49480242  0.96377092  0.79999746    -0.20500
F2408       F  0.47140090  0.89034946  0.79655299    -0.23100
C2409       C  0.46731450  0.22403200  0.73468877    -0.06000
C2410       C  0.49344599  0.21554841  0.71586446     0.00000
C2411       C  0.52904151  0.25155160  0.70130002    -0.08600
C2412       C  0.54279758  0.29548787  0.71021597    -0.06000
C2413       C  0.52038963  0.30351778  0.73217915    -0.00100
C2414       C  0.48074854  0.26801094  0.74354846    -0.08500
C2415       C  0.45492345  0.27648882  0.76645848     0.61900
H2416       H  0.43981726  0.19596512  0.74540594     0.12500
H2417       H  0.57158394  0.32357203  0.70039105     0.12600
C2418       C  0.55420405  0.24457679  0.67739214     0.62100
F2419       F  0.41959630  0.23680752  0.77644375    -0.23100
F2420       F  0.43878039  0.30204145  0.75520555    -0.20400
F2421       F  0.48194710  0.29916110  0.78959109    -0.20100
F2422       F  0.53417734  0.19987462  0.66897237    -0.20100
F2423       F  0.59651638  0.25898080  0.68650989    -0.20500
F2424       F  0.55622320  0.26950561  0.65371937    -0.23100
C2425       C  0.77029669  0.12151886  0.57668730    -0.06000
C2426       C  0.80717597  0.15486929  0.56071001     0.00000
C2427       C  0.79799649  0.16508215  0.53302070    -0.08600
C2428       C  0.75378670  0.14075244  0.52237190    -0.06000
C2429       C  0.71723373  0.10924169  0.53902739    -0.00100
C2430       C  0.72611004  0.09945764  0.56664122    -0.08500
C2431       C  0.68858651  0.06587533  0.58550563     0.61900
H2432       H  0.77592932  0.11273329  0.59781844     0.12500
H2433       H  0.75552891  0.16180878  0.00347065     0.12600
C2434       C  0.84248999  0.21565216  0.01748168     0.62100
F2435       F  0.70362026  0.05761904  0.61077806    -0.23100
F2436       F  0.66448868  0.02543045  0.57083910    -0.20400
F2437       F  0.66127742  0.08230797  0.59250622    -0.20100
F2438       F  0.87347595  0.20650232  0.00683584    -0.20100
F2439       F  0.85186750  0.24276801  0.53192057    -0.20500
F2440       F  0.82517133  0.22665777  0.99452890    -0.23100
C2441       C  0.54631462  0.25369938  0.96029740    -0.06000
C2442       C  0.50390241  0.24606405  0.96556845     0.00000
C2443       C  0.47094465  0.20300363  0.97509255    -0.08600
C2444       C  0.47895135  0.17150464  0.48566277    -0.06000
C2445       C  0.52358370  0.18362192  0.48623315    -0.00100
C2446       C  0.55971887  0.22521301  0.97142642    -0.08500
C2447       C  0.60536887  0.23416469  0.96423517     0.61900
H2448       H  0.57046470  0.28512233  0.95036961     0.12500
H2449       H  0.45419229  0.13890737  0.49378321     0.12600
C2450       C  0.41821761  0.18494925  0.46904897     0.62100
F2451       F  0.62655697  0.26809949  0.94417624    -0.23100
F2452       F  0.60178865  0.19547006  0.95259810    -0.20400
F2453       F  0.62613318  0.24210443  0.48645145    -0.20100
F2454       F  0.41682685  0.18813911  0.94014167    -0.20100
F2455       F  0.40297796  0.20624772  0.48676331    -0.20500
F2456       F  0.39185687  0.13898821  0.47319747    -0.23100
C2457       C  0.44826009  0.97111790  0.98691581    -0.06000
C2458       C  0.48191026  0.96389817  0.97588744     0.00000
C2459       C  0.47120673  0.93543303  0.95141164    -0.08600
C2460       C  0.42781476  0.91457908  0.93990184    -0.06000
C2461       C  0.39409642  0.92073062  0.95166573    -0.00100
C2462       C  0.40541623  0.95113322  0.97503513    -0.08500
C2463       C  0.37409626  0.96412562  0.98830966     0.61900
H2464       H  0.45544262  0.99362022  0.00511409     0.12500
H2465       H  0.41923319  0.89134790  0.92204019     0.12600
C2466       C  0.50460457  0.92534782  0.93824763     0.62100
F2467       F  0.36641636  0.95091288  0.01675486    -0.23100
F2468       F  0.33415508  0.94508022  0.97423488    -0.20400
F2469       F  0.39323973  0.01045524  0.98727556    -0.20100
F2470       F  0.52065937  0.90945593  0.95922144    -0.20100
F2471       F  0.53900760  0.96408594  0.92642073    -0.20500
F2472       F  0.48635903  0.89307746  0.91668156    -0.23100
C2473       C  0.49300695  0.03651432  0.64096562    -0.06000
C2474       C  0.52479530  0.06866508  0.65961295     0.00000
C2475       C  0.56254874  0.10645518  0.64827752    -0.08600
C2476       C  0.56694957  0.11128458  0.61835358    -0.06000
C2477       C  0.53520572  0.07927548  0.59921520    -0.00100
C2478       C  0.49785582  0.04032690  0.61085257    -0.08500
C2479       C  0.46311395  0.00273239  0.59216167     0.61900
H2480       H  0.46344868  0.00885883  0.65029557     0.12500
H2481       H  0.59562237  0.14082127  0.60978125     0.12600
C2482       C  0.59771707  0.14184391  0.66783167     0.62100
F2483       F  0.48282798  0.98629913  0.57393267    -0.23100
F2484       F  0.44114672  0.01872974  0.57626798    -0.20400
F2485       F  0.43205616  0.96696595  0.60839773    -0.20100
F2486       F  0.61616878  0.12215531  0.68367229    -0.20100
F2487       F  0.57937740  0.15937803  0.68632155    -0.20500
F2488       F  0.63109001  0.17719824  0.65254872    -0.23100
C2489       C  0.56996448  0.06482569  0.88869352    -0.06000
C2490       C  0.54309701  0.07094058  0.90838024     0.00000
C2491       C  0.51169812  0.08122572  0.89789738    -0.08600
C2492       C  0.51126938  0.08878100  0.86817442    -0.06000
C2493       C  0.54032770  0.08547795  0.84878387    -0.00100
C2494       C  0.56951912  0.07209956  0.85918741    -0.08500
C2495       C  0.60181352  0.06750343  0.83979392     0.61900
H2496       H  0.59249362  0.05509581  0.89684638     0.12500
H2497       H  0.48823113  0.09766304  0.85980099     0.12600
C2498       C  0.47969559  0.08544910  0.91772531     0.62100
F2499       F  0.63192674  0.06180748  0.85524722    -0.23100
F2500       F  0.62515551  0.10598159  0.82361307    -0.20400
F2501       F  0.57932218  0.03053905  0.82182696    -0.20100
F2502       F  0.50282486  0.11898004  0.93781196    -0.20100
F2503       F  0.45309395  0.04497741  0.93150573    -0.20500
F2504       F  0.45259595  0.09634052  0.90293355    -0.23100
C2505       C  0.76796091  0.29562926  0.96856846    -0.06000
C2506       C  0.77712362  0.29894912  0.49455254     0.00000
C2507       C  0.76438223  0.26535160  0.51537785    -0.08600
C2508       C  0.73509850  0.22096402  0.50719050    -0.06000
C2509       C  0.72452093  0.21787050  0.98249711    -0.00100
C2510       C  0.73950530  0.25046794  0.96077084    -0.08500
C2511       C  0.72538850  0.23728991  0.92979007     0.61900
H2512       H  0.77615720  0.32178863  0.95314788     0.12500
H2513       H  0.72240512  0.19586278  0.52392406     0.12600
C2514       C  0.77903281  0.27664461  0.54654428     0.62100
F2515       F  0.73789719  0.20725518  0.92061600    -0.23100
F2516       F  0.74480034  0.27424322  0.91180584    -0.20400
F2517       F  0.68021981  0.21704212  0.92739262    -0.20100
F2518       F  0.76141681  0.30068603  0.55869008    -0.20100
F2519       F  0.82443358  0.30227415  0.54790260    -0.20500
F2520       F  0.76532422  0.23834706  0.56284093    -0.23100
loop_ 
_geom_bond_atom_site_label_1 
_geom_bond_atom_site_label_2 
_geom_bond_distance 
_geom_bond_site_symmetry_2 
_ccdc_geom_bond_type 
Fe1          O17   2.051       .  S
Fe1           O7   2.125       .  S
Fe1          O14   2.101       .  S
Fe1           O6   2.015   1_554  S
Fe1          O12   1.905       .  S
Fe2           O5   2.003       .  S
Fe2          O13   2.024       .  S
Fe2          O18   2.139       .  S
Fe2        O1269   2.097       .  S
Fe2        O1272   1.934       .  S
Fe3          O21   2.187   1_545  S
Fe3           O8   2.025       .  S
Fe3           O4   2.123       .  S
Fe3        O1275   2.115       .  S
Fe3        O1272   1.985       .  S
O4           C11   1.271       .  A
O5           C19   1.243   1_545  A
O6         C1271   1.250       .  A
O7           C10   1.284       .  A
O8           C20   1.272       .  A
O9        Fe1262   2.070       .  S
O9           C22   1.270       .  A
C10          O15   1.295       .  A
C10        C1169   1.532       .  S
C11        O1266   1.249       .  A
C11        C1249   1.463       .  S
O12       Fe1262   1.936       .  S
O12       Fe1263   1.982   1_554  S
O13        C1276   1.258       .  A
O14          C16   1.275       .  A
O15       Fe1263   2.122   1_554  S
C16        O1273   1.257   1_554  A
C16        C1185   1.480   1_554  S
O17          C22   1.272       .  A
O18          C20   1.285       .  A
C19          O21   1.280       .  A
C19        C1198   1.533       .  S
C20        C1230   1.490       .  S
C22        C1217   1.491       .  S
Fe23         O39   2.104       .  S
Fe23         O29   2.032       .  S
Fe23         O36   2.068       .  S
Fe23         O28   2.124       .  S
Fe23         O34   1.918       .  S
Fe24         O27   2.117       .  S
Fe24         O31   2.022       .  S
Fe24         O35   2.069       .  S
Fe24         O40   2.003       .  S
Fe24         O34   1.938       .  S
Fe25         O43   2.024       .  S
Fe25         O30   2.190   1_545  S
Fe25         O37   2.075       .  S
Fe25         O26   2.145       .  S
Fe25         O34   1.979       .  S
O26          C33   1.301       .  A
O27          C41   1.282       .  A
O28          C33   1.284       .  A
O29          C32   1.261       .  A
O30          C42   1.282       .  A
O31          C44   1.256       .  A
C32          O37   1.268       .  A
C32        C1150   1.449       .  S
C33        C1102   1.547       .  S
O35          C38   1.272       .  A
O36          C38   1.275       .  A
C38        C1233   1.489       .  S
O39          C44   1.276       .  A
O40          C42   1.240   1_545  A
C41          O43   1.266       .  A
C41        C1214   1.483       .  S
C42        C1134   1.524       .  S
C44        C1118   1.485       .  S
Fe45         O61   2.050       .  S
Fe45         O51   2.106       .  S
Fe45         O58   2.092       .  S
Fe45         O50   2.021   1_554  S
Fe45       O1316   1.910   1_554  S
Fe46         O49   2.010       .  S
Fe46         O57   2.024       .  S
Fe46         O62   2.119       .  S
Fe46       O1313   2.084       .  S
Fe46         O56   1.932       .  S
Fe47         O65   2.179       .  S
Fe47         O52   2.027       .  S
Fe47         O48   2.114       .  S
Fe47       O1319   2.119       .  S
Fe47         O56   1.964       .  S
O48          C55   1.274       .  A
O49          C63   1.243       .  A
O50        C1315   1.261       .  A
O51          C54   1.281       .  A
O52          C64   1.269       .  A
O53       Fe1306   2.108   1_554  S
O53          C66   1.280       .  A
C54          O59   1.292       .  A
C54        C1025   1.527       .  S
C55        O1310   1.261       .  A
C55        C1182   1.477       .  S
O56       Fe1305   1.913       .  S
O57        C1320   1.256       .  A
O58          C60   1.273   1_554  A
O59       Fe1307   2.113   1_554  S
C60        O1317   1.256       .  A
C60        C1038   1.484       .  S
O61          C66   1.272       .  A
O62          C64   1.285       .  A
C63          O65   1.280       .  A
C63        C1054   1.512       .  S
C64        C1086   1.480       .  S
C66        C1070   1.501       .  S
Fe67         O83   2.073       .  S
Fe67         O73   2.016       .  S
Fe67         O80   2.035       .  S
Fe67         O72   2.086       .  S
Fe67         O78   1.910       .  S
Fe68         O71   2.154       .  S
Fe68         O75   2.004       .  S
Fe68         O79   2.096       .  S
Fe68         O84   1.993       .  S
Fe68         O78   1.923       .  S
Fe69         O87   2.031       .  S
Fe69         O74   2.202       .  S
Fe69         O81   2.123       .  S
Fe69         O70   2.119       .  S
Fe69         O78   1.967       .  S
O70          C77   1.294       .  A
O71          C85   1.290       .  A
O72          C77   1.276       .  A
O73          C76   1.261       .  A
O74          C86   1.283       .  A
O75          C88   1.254       .  A
C76          O81   1.278       .  A
C76        C1006   1.473       .  S
C77         C974   1.529       .  S
O79          C82   1.276       .  A
O80          C82   1.270       .  A
C82        C1089   1.496       .  S
O83          C88   1.268       .  A
O84          C86   1.236       .  A
C85          O87   1.270       .  A
C85        C1073   1.500       .  S
C86         C990   1.527       .  S
C88        C1153   1.449       .  S
Fe89        O105   2.078       .  S
Fe89         O95   2.021       .  S
Fe89        O102   2.041       .  S
Fe89         O94   2.089       .  S
Fe89        O100   1.918       .  S
Fe90         O93   2.100       .  S
Fe90         O97   2.034       .  S
Fe90        O101   2.080       .  S
Fe90        O106   2.020       .  S
Fe90        O100   1.938       .  S
Fe91        O109   2.028       .  S
Fe91         O96   2.177       .  S
Fe91        O103   2.121       .  S
Fe91         O92   2.106       .  S
Fe91        O100   1.968       .  S
O92          C99   1.290       .  A
O93         C107   1.282       .  A
O94          C99   1.278       .  A
O95          C98   1.260       .  A
O96         C108   1.281       .  A
O97         C110   1.258       .  A
C98         O103   1.276       .  A
C98        C1121   1.475       .  S
C99         C910   1.518       .  S
O101        C104   1.273       .  A
O102        C104   1.270       .  A
C104        C942   1.489       .  S
O105        C110   1.271       .  A
O106        C108   1.247       .  A
C107        O109   1.269       .  A
C107        C961   1.466       .  S
C108        C926   1.515   1_655  S
C110       C1009   1.475       .  S
Fe111       O127   2.013       .  S
Fe111       O117   2.063       .  S
Fe111       O124   2.059       .  S
Fe111       O116   2.015   1_554  S
Fe111       O122   1.915       .  S
Fe112       O115   2.025       .  S
Fe112       O123   2.037       .  S
Fe112       O128   2.117       .  S
Fe112      O1379   2.110       .  S
Fe112      O1382   1.935       .  S
Fe113       O131   2.189       .  S
Fe113       O118   2.024       .  S
Fe113       O114   2.117       .  S
Fe113      O1385   2.127       .  S
Fe113      O1382   1.961       .  S
O114        C121   1.279       .  A
O115        C129   1.250       .  A
O116       C1381   1.262       .  A
O117        C120   1.269       .  A
O118        C130   1.267       .  A
O119      Fe1372   2.105       .  S
O119        C132   1.279       .  A
C120        O125   1.296       .  A
C120        C878   1.526       .  S
C121       O1376   1.262       .  A
C121       C1041   1.469       .  S
O122      Fe1372   1.935       .  S
O122      Fe1373   1.953   1_554  S
O123       C1386   1.257       .  A
O124        C126   1.263       .  A
O125      Fe1373   2.140   1_554  S
C126       O1383   1.254   1_554  A
C126       C1246   1.450   1_554  S
O127        C132   1.267       .  A
O128        C130   1.284       .  A
C129        O131   1.288       .  A
C129        C894   1.521   1_655  S
C130        C945   1.483       .  S
C132        C958   1.492       .  S
Fe133       O149   2.033       .  S
Fe133       O139   2.087       .  S
Fe133       O146   2.076       .  S
Fe133       O138   2.023       .  S
Fe133       O144   1.907       .  S
Fe134       O137   2.000       .  S
Fe134       O141   2.112       .  S
Fe134       O145   2.020       .  S
Fe134       O150   2.148       .  S
Fe134       O144   1.918       .  S
Fe135       O153   2.207       .  S
Fe135       O140   2.021       .  S
Fe135       O147   2.119       .  S
Fe135       O136   2.128       .  S
Fe135       O144   1.958       .  S
O136        C143   1.280       .  A
O137        C151   1.241       .  A
O138        C143   1.258       .  A
O139        C142   1.275       .  A
O140        C152   1.264       .  A
O141        C154   1.282       .  A
C142        O147   1.292       .  A
C142       C1137   1.514       .  S
C143        C865   1.463       .  S
O145        C148   1.255       .  A
O146        C148   1.271       .  A
C148        C801   1.468       .  S
O149        C154   1.267       .  A
O150        C152   1.286       .  A
C151        O153   1.289       .  A
C151        C814   1.526       .  S
C152        C846   1.478       .  S
C154        C830   1.490       .  S
Fe155       O171   2.061       .  S
Fe155       O161   2.024       .  S
Fe155       O168   2.028       .  S
Fe155       O160   2.082       .  S
Fe155       O166   1.915       .  S
Fe156       O159   2.133       .  S
Fe156       O163   2.042       .  S
Fe156       O167   2.120       .  S
Fe156       O172   2.011       .  S
Fe156       O166   1.937       .  S
Fe157       O175   2.018       .  S
Fe157       O162   2.194       .  S
Fe157       O169   2.122       .  S
Fe157       O158   2.121       .  S
Fe157       O166   1.950       .  S
O158        C165   1.292       .  A
O159        C173   1.284       .  A
O160        C165   1.274       .  A
O161        C164   1.260       .  A
O162        C174   1.292       .  A
O163        C176   1.259       .  A
C164        O169   1.277       .  A
C164        C782   1.467       .  S
C165       C1057   1.515       .  S
O167        C170   1.285       .  A
O168        C170   1.264       .  A
C170       C2109   1.499       .  S
O171        C176   1.268       .  A
O172        C174   1.250       .  A
C173        O175   1.266       .  A
C173        C833   1.495       .  S
C174        C766   1.524       .  S
C176        C750   1.464       .  S
Fe177       O193   2.089       .  S
Fe177       O183   2.026       .  S
Fe177       O190   2.043       .  S
Fe177       O182   2.128       .  S
Fe177       O188   1.913       .  S
Fe178       O181   2.117       .  S
Fe178       O185   2.024       .  S
Fe178       O189   2.078       .  S
Fe178       O194   2.002       .  S
Fe178       O188   1.927       .  S
Fe179       O197   2.031       .  S
Fe179       O184   2.196       .  S
Fe179       O191   2.139       .  S
Fe179       O180   2.114       .  S
Fe179       O188   1.979       .  S
O180        C187   1.294       .  A
O181        C195   1.281       .  A
O182        C187   1.283       .  A
O183        C186   1.250       .  A
O184        C196   1.285       .  A
O185        C198   1.256       .  A
C186        O191   1.272       .  A
C186        C734   1.484       .  S
C187        C897   1.526       .  S
O189        C192   1.274       .  A
O190        C192   1.271       .  A
C192       C1965   1.493       .  S
O193        C198   1.272       .  A
O194        C196   1.244       .  A
C195        O197   1.272       .  A
C195        C718   1.474       .  S
C196        C689   1.531       .  S
C198        C785   1.472       .  S
Fe199       O215   2.033       .  S
Fe199       O205   2.095       .  S
Fe199       O212   2.083       .  S
Fe199       O204   2.016       .  S
Fe199       O210   1.904       .  S
Fe200       O203   1.996       .  S
Fe200       O207   2.088       .  S
Fe200       O211   2.015       .  S
Fe200       O216   2.138       .  S
Fe200       O210   1.933       .  S
Fe201       O219   2.190       .  S
Fe201       O206   2.004       .  S
Fe201       O213   2.117       .  S
Fe201       O202   2.103       .  S
Fe201       O210   1.976       .  S
O202        C209   1.275       .  A
O203        C217   1.237       .  A
O204        C209   1.263       .  A
O205        C208   1.278       .  A
O206        C218   1.263       .  A
O207        C220   1.274       .  A
C208        O213   1.292       .  A
C208        C993   1.521       .  S
C209        C798   1.471       .  S
O211        C214   1.258       .  A
O212        C214   1.273       .  A
C214        C654   1.478       .  S
O215        C220   1.270       .  A
O216        C218   1.288       .  A
C217        O219   1.278       .  A
C217        C670   1.523       .  S
C218        C702   1.472       .  S
C220        C721   1.485       .  S
Fe221       O237   2.030       .  S
Fe221       O227   2.112       .  S
Fe221       O234   2.062       .  S
Fe221       O226   2.021       .  S
Fe221       O232   1.909       .  S
Fe222       O225   2.024       .  S
Fe222       O229   2.110       .  S
Fe222       O233   2.033       .  S
Fe222       O238   2.117       .  S
Fe222       O232   1.923       .  S
Fe223       O241   2.192       .  S
Fe223       O228   2.014       .  S
Fe223       O235   2.102       .  S
Fe223       O224   2.129       .  S
Fe223       O232   1.972       .  S
O224        C231   1.267       .  A
O225        C239   1.252       .  A
O226        C231   1.245       .  A
O227        C230   1.281       .  A
O228        C240   1.264       .  A
O229        C242   1.283       .  A
C230        O235   1.293       .  A
C230        C929   1.514       .  S
C231        C657   1.471       .  S
O233        C236   1.256       .  A
O234        C236   1.264       .  A
C236        C862   1.461       .  S
O237        C242   1.271       .  A
O238        C240   1.289       .  A
C239        O241   1.286       .  A
C239        C606   1.529       .  S
C240        C638   1.473       .  S
C242        C625   1.494       .  S
Fe243       O259   2.097       .  S
Fe243       O249   2.011       .  S
Fe243       O256   2.021       .  S
Fe243       O248   2.114       .  S
Fe243       O254   1.895       .  S
Fe244       O247   2.141       .  S
Fe244       O251   2.023       .  S
Fe244       O255   2.113       .  S
Fe244       O260   2.008       .  S
Fe244       O254   1.926       .  S
Fe245       O263   2.015       .  S
Fe245       O250   2.202       .  S
Fe245       O257   2.141       .  S
Fe245       O246   2.097       .  S
Fe245       O254   1.963       .  S
O246        C253   1.286       .  A
O247        C261   1.287       .  A
O248        C253   1.280       .  A
O249        C252   1.251       .  A
O250        C262   1.289       .  A
O251        C264   1.261       .  A
C252        O257   1.280       .  A
C252        C753   1.473       .  S
C253       C1201   1.512       .  S
O255        C258   1.280       .  A
O256        C258   1.263       .  A
C258       C1901   1.481       .  S
O259        C264   1.277       .  A
O260        C262   1.245       .  A
C261        O263   1.264       .  A
C261        C622   1.476       .  S
C262        C590   1.520       .  S
C264        C737   1.490       .  S
Fe265       O281   2.046       .  S
Fe265       O271   2.102       .  S
Fe265       O278   2.077       .  S
Fe265       O270   2.023       .  S
Fe265       O276   1.919       .  S
Fe266       O269   2.009       .  S
Fe266       O273   2.107       .  S
Fe266       O277   2.008       .  S
Fe266       O282   2.138       .  S
Fe266       O276   1.940       .  S
Fe267       O285   2.215       .  S
Fe267       O272   2.023       .  S
Fe267       O279   2.137       .  S
Fe267       O268   2.131       .  S
Fe267       O276   1.973       .  S
O268        C275   1.276       .  A
O269        C283   1.245       .  A
O270        C275   1.257       .  A
O271        C274   1.281       .  A
O272        C284   1.269       .  A
O273        C286   1.282       .  A
C274        O279   1.301       .  A
C274        C686   1.534       .  S
C275        C574   1.485       .  S
O277        C280   1.251       .  A
O278        C280   1.270       .  A
C280        C526   1.469   1_545  S
O281        C286   1.269       .  A
O282        C284   1.291       .  A
C283        O285   1.287       .  A
C283       C1105   1.550       .  S
C284        C561   1.477       .  S
C286        C542   1.481       .  S
Fe287       O303   2.089       .  S
Fe287       O293   2.016   1_545  S
Fe287       O300   2.034       .  S
Fe287       O292   2.097   1_545  S
Fe287       O298   1.917       .  S
Fe288       O291   2.139       .  S
Fe288       O295   2.021       .  S
Fe288       O299   2.103       .  S
Fe288       O304   2.003       .  S
Fe288       O298   1.930       .  S
Fe289       O307   2.024       .  S
Fe289       O294   2.189       .  S
Fe289       O301   2.123   1_545  S
Fe289       O290   2.117   1_545  S
Fe289       O298   1.969       .  S
O290        C297   1.291       .  A
O291        C305   1.287       .  A
O292        C297   1.277       .  A
O293        C296   1.262       .  A
O294        C306   1.283       .  A
O295        C308   1.255       .  A
C296        O301   1.277       .  A
C296        C510   1.480       .  S
C297        C609   1.522       .  S
O299        C302   1.279       .  A
O300        C302   1.269       .  A
C302        C558   1.502       .  S
O303        C308   1.271       .  A
O304        C306   1.243       .  A
C305        O307   1.267       .  A
C305       C1805   1.480   1_554  S
C306       C1022   1.522       .  S
C308        C497   1.474       .  S
Fe309       O325   2.043       .  S
Fe309       O315   2.078   1_655  S
Fe309       O322   2.085       .  S
Fe309       O314   2.019       .  S
Fe309       O320   1.906       .  S
Fe310       O313   1.994       .  S
Fe310       O317   2.105       .  S
Fe310       O321   2.017       .  S
Fe310       O326   2.146       .  S
Fe310       O320   1.925       .  S
Fe311       O329   2.198       .  S
Fe311       O316   2.004       .  S
Fe311       O323   2.122       .  S
Fe311       O312   2.107   1_655  S
Fe311       O320   1.967       .  S
O312        C319   1.278       .  A
O313        C327   1.237       .  A
O314        C319   1.267   1_655  A
O315        C318   1.273       .  A
O316        C328   1.260       .  A
O317        C330   1.279       .  A
C318        O323   1.291   1_455  A
C318        C593   1.521       .  S
C319        C529   1.459       .  S
O321        C324   1.256       .  A
O322        C324   1.269       .  A
C324        C446   1.482       .  S
O325        C330   1.271       .  A
O326        C328   1.283       .  A
C327        O329   1.290       .  A
C327        C977   1.513       .  S
C328        C478   1.498       .  S
C330        C462   1.494       .  S
Fe331       O347   2.075       .  S
Fe331       O337   2.023       .  S
Fe331       O344   2.052       .  S
Fe331       O336   2.110       .  S
Fe331       O342   1.897       .  S
Fe332       O335   2.145       .  S
Fe332       O339   2.022       .  S
Fe332       O343   2.091       .  S
Fe332       O348   1.995       .  S
Fe332       O342   1.918       .  S
Fe333       O351   2.038       .  S
Fe333       O338   2.199       .  S
Fe333       O345   2.133       .  S
Fe333       O334   2.129       .  S
Fe333       O342   1.986       .  S
O334        C341   1.298       .  A
O335        C349   1.286       .  A
O336        C341   1.279       .  A
O337        C340   1.245       .  A
O338        C350   1.286       .  A
O339        C352   1.256       .  A
C340        O345   1.271       .  A
C340        C430   1.472       .  S
C341        C817   1.530       .  S
O343        C346   1.279       .  A
O344        C346   1.272       .  A
C346        C481   1.472       .  S
O347        C352   1.266       .  A
O348        C350   1.238       .  A
C349        O351   1.272       .  A
C349       C1725   1.497   1_554  S
C350        C881   1.525       .  S
C352        C513   1.474       .  S
Fe353       O369   2.031       .  S
Fe353       O359   2.135   1_545  S
Fe353       O366   2.079       .  S
Fe353       O358   2.022       .  S
Fe353       O364   1.895       .  S
Fe354       O357   1.997       .  S
Fe354       O361   2.126       .  S
Fe354       O365   2.037       .  S
Fe354       O370   2.145       .  S
Fe354       O364   1.918       .  S
Fe355       O373   2.192       .  S
Fe355       O360   2.032       .  S
Fe355       O367   2.112   1_545  S
Fe355       O356   2.143   1_545  S
Fe355       O364   1.975       .  S
O356        C363   1.276       .  A
O357        C371   1.241       .  A
O358        C363   1.244   1_545  A
O359        C362   1.282       .  A
O360        C372   1.269       .  A
O361        C374   1.286       .  A
C362        O367   1.291       .  A
C362        C769   1.522       .  S
C363        C449   1.476       .  S
O365        C368   1.255       .  A
O366        C368   1.271       .  A
C368        C577   1.481       .  S
O369        C374   1.270       .  A
O370        C372   1.285       .  A
C371        O373   1.286       .  A
C371        C913   1.517       .  S
C372        C417   1.483       .  S
C374        C401   1.490       .  S
Fe375       O391   2.055       .  S
Fe375       O381   2.026       .  S
Fe375       O388   2.037       .  S
Fe375       O380   2.072   1_655  S
Fe375       O386   1.906       .  S
Fe376       O379   2.163       .  S
Fe376       O383   2.028       .  S
Fe376       O387   2.116       .  S
Fe376       O392   2.001       .  S
Fe376       O386   1.932       .  S
Fe377       O395   2.007       .  S
Fe377       O382   2.220       .  S
Fe377       O389   2.124   1_655  S
Fe377       O378   2.128       .  S
Fe377       O386   1.968       .  S
O378        C385   1.295   1_655  A
O379        C393   1.291       .  A
O380        C385   1.274       .  A
O381        C384   1.260   1_655  A
O382        C394   1.288       .  A
O383        C396   1.259       .  A
C384        O389   1.277       .  A
C384        C494   1.473       .  S
C385        C673   1.516       .  S
O387        C390   1.284       .  A
O388        C390   1.265       .  A
C390        C414   1.499       .  S
O391        C396   1.265       .  A
O392        C394   1.241       .  A
C393        O395   1.264       .  A
C393       C1658   1.485   1_554  S
C394       C1166   1.550       .  S
C396        C433   1.476   1_545  S
C397        C398   1.401       .  A
C397        C402   1.414       .  A
C397        H404   1.080       .  S
C398       C1653   1.477       .  S
C398        C399   1.417       .  A
C399        C400   1.401       .  A
C399        C406   1.517       .  S
C400        C401   1.403       .  A
C400        H405   1.085       .  S
C401        C402   1.423       .  A
C402        C403   1.515       .  S
C403        F407   1.385       .  S
C403        F408   1.381       .  S
C403        F409   1.383       .  S
C406        F410   1.382       .  S
C406        F412   1.384       .  S
C406       F1671   1.382       .  S
F411       C1666   1.384   1_565  S
C413        C414   1.404       .  A
C413        C418   1.405       .  A
C413        H420   1.084       .  S
C414        C415   1.433       .  A
C415        C416   1.411       .  A
C415        C422   1.521       .  S
C416        C417   1.398       .  A
C416        H421   1.084       .  S
C417        C418   1.420       .  A
C418        C419   1.517       .  S
C419        F423   1.384       .  S
C419        F424   1.382       .  S
C419        F425   1.383       .  S
C422        F426   1.384       .  S
C422        F427   1.383       .  S
C422        F428   1.385       .  S
C429        C430   1.407       .  A
C429        C434   1.388       .  A
C429        H436   1.080       .  S
C430        C431   1.406       .  A
C431        C432   1.409       .  A
C431        C438   1.513       .  S
C432        C433   1.415       .  A
C432        H437   1.081       .  S
C433        C434   1.414       .  A
C434        C435   1.525       .  S
C435        F439   1.385       .  S
C435        F440   1.384       .  S
C435        F441   1.383   1_565  S
C438        F442   1.382       .  S
C438        F443   1.383       .  S
C438        F444   1.384       .  S
C445        C446   1.415       .  A
C445        C450   1.407       .  A
C445        H452   1.084       .  S
C446        C447   1.416       .  A
C447        C448   1.395       .  A
C447        C454   1.525       .  S
C448        C449   1.410       .  A
C448        H453   1.080       .  S
C449        C450   1.410       .  A
C450        C451   1.517       .  S
C451        F455   1.383       .  S
C451        F456   1.381       .  S
C451        F457   1.384       .  S
C454        F458   1.384       .  S
C454        F459   1.383       .  S
C454        F460   1.385       .  S
C461        C462   1.410       .  A
C461        C466   1.408       .  A
C461        H468   1.083       .  S
C462        C463   1.418       .  A
C463        C464   1.408       .  A
C463        C470   1.521       .  S
C464        C465   1.413       .  A
C464        H469   1.082       .  S
C465       C1609   1.499       .  S
C465        C466   1.417       .  A
C466        C467   1.515       .  S
C467        F471   1.385       .  S
C467       F1732   1.381       .  S
C467       F1733   1.380       .  S
C470        F474   1.384       .  S
C470        F475   1.383       .  S
C470        F476   1.385       .  S
F472       C1727   1.382   1_554  S
F473       C1727   1.378   1_554  S
C477        C478   1.415       .  A
C477        C482   1.401       .  A
C477        H484   1.081       .  S
C478        C479   1.418       .  A
C479        C480   1.415       .  A
C479        C486   1.513       .  S
C480        C481   1.406       .  A
C480        H485   1.083       .  S
C481        C482   1.404       .  A
C482        C483   1.519       .  S
C483        F487   1.384       .  S
C483        F488   1.383       .  S
C483        F489   1.383       .  S
C486        F490   1.382       .  S
C486        F491   1.383       .  S
C486        F492   1.385       .  S
C493        C494   1.404       .  A
C493        C498   1.411       .  A
C493        H500   1.082       .  S
C494        C495   1.412       .  A
C495        C496   1.399       .  A
C495        C502   1.513       .  S
C496        C497   1.401       .  A
C496        H501   1.085       .  S
C497        C498   1.420       .  A
C498        C499   1.519       .  S
C499        F503   1.379       .  S
C499        F504   1.382       .  S
C499        F505   1.383       .  S
C502        F506   1.384       .  S
C502        F507   1.384   1_455  S
C502        F508   1.382   1_455  S
C509        C510   1.404       .  A
C509        C514   1.403       .  A
C509        H516   1.084       .  S
C510        C511   1.409       .  A
C511        C512   1.401       .  A
C511        C518   1.505       .  S
C512        C513   1.404   1_455  A
C512        H517   1.085       .  S
C513        C514   1.421   1_655  A
C514        C515   1.517   1_455  S
C515        F519   1.384       .  S
C515        F520   1.382       .  S
C515        F521   1.382       .  S
C518        F522   1.378       .  S
C518        F523   1.382       .  S
C518        F524   1.384       .  S
C525        C526   1.398       .  A
C525        C530   1.390       .  A
C525        H532   1.080       .  S
C526        C527   1.421       .  A
C527        C528   1.408       .  A
C527        C534   1.519       .  S
C528        C529   1.402       .  A
C528        H533   1.082       .  S
C529        C530   1.407       .  A
C530        C531   1.512       .  S
C531        F535   1.384       .  S
C531        F536   1.383   1_455  S
C531        F537   1.381   1_455  S
C534        F538   1.383       .  S
C534        F539   1.382       .  S
C534        F540   1.383       .  S
C541        C542   1.404       .  A
C541        C546   1.411       .  A
C541        H548   1.083       .  S
C542        C543   1.419       .  A
C543        C544   1.407       .  A
C543        C550   1.520       .  S
C544        C545   1.401       .  A
C544        H549   1.084       .  S
C545       C1565   1.476       .  S
C545        C546   1.416       .  A
C546        C547   1.517       .  S
C547        F551   1.385       .  S
C547       F1812   1.381       .  S
C547       F1813   1.383       .  S
C550        F554   1.384   1_545  S
C550        F555   1.382       .  S
C550        F556   1.385   1_545  S
F552       C1807   1.382       .  S
F553       C1807   1.383       .  S
C557        C558   1.415       .  A
C557        C562   1.402       .  A
C557        H564   1.081       .  S
C558        C559   1.425       .  A
C559        C560   1.411       .  A
C559        C566   1.520       .  S
C560        C561   1.404       .  A
C560        H565   1.083       .  S
C561        C562   1.407       .  A
C562        C563   1.513       .  S
C563        F567   1.385   1_545  S
C563        F568   1.380       .  S
C563        F569   1.382       .  S
C566        F570   1.383       .  S
C566        F571   1.384       .  S
C566        F572   1.385       .  S
C573        C574   1.408       .  A
C573        C578   1.417       .  A
C573        H580   1.083       .  S
C574        C575   1.417       .  A
C575        C576   1.393   1_455  A
C575        C582   1.512       .  S
C576        C577   1.397       .  A
C576        H581   1.085       .  S
C577        C578   1.422   1_655  A
C578        C579   1.516       .  S
C579        F583   1.385       .  S
C579        F584   1.377       .  S
C579        F585   1.383   1_455  S
C582        F586   1.381       .  S
C582        F587   1.383       .  S
C582        F588   1.384       .  S
C589        C590   1.413       .  A
C589        C594   1.429       .  A
C589        H596   1.078       .  S
C590        C591   1.423       .  A
C591        C592   1.416       .  A
C591        C598   1.519       .  S
C592        C593   1.411       .  A
C592        H597   1.084       .  S
C593        C594   1.427       .  A
C594        C595   1.517       .  S
C595        F599   1.384       .  S
C595        F600   1.378       .  S
C595        F601   1.383       .  S
C598        F602   1.384       .  S
C598        F603   1.383       .  S
C598        F604   1.385       .  S
C605        C606   1.414       .  A
C605        C610   1.425       .  A
C605        H612   1.071       .  S
C606        C607   1.420       .  A
C607        C608   1.426       .  A
C607        C614   1.516       .  S
C608        C609   1.416       .  A
C608        H613   1.083       .  S
C609        C610   1.418       .  A
C610        C611   1.519       .  S
C611        F615   1.375       .  S
C611        F616   1.383       .  S
C611        F617   1.378       .  S
C614        F618   1.382       .  S
C614        F619   1.384       .  S
C614        F620   1.384       .  S
C621        C622   1.407       .  A
C621        C626   1.408       .  A
C621        H628   1.083       .  S
C622        C623   1.405       .  A
C623        C624   1.406       .  A
C623        C630   1.513       .  S
C624        C625   1.415       .  A
C624        H629   1.083       .  S
C625        C626   1.419       .  A
C626        C627   1.519       .  S
C627        F631   1.385       .  S
C627        F632   1.383       .  S
C627        F633   1.382       .  S
C630        F634   1.383       .  S
C630        F635   1.383       .  S
C630        F636   1.384       .  S
C637        C638   1.394       .  A
C637        C642   1.399       .  A
C637        H644   1.084       .  S
C638        C639   1.427       .  A
C639        C640   1.402       .  A
C639        C646   1.522       .  S
C640        C641   1.396       .  A
C640        H645   1.083       .  S
C641       C1518   1.476   1_554  S
C641        C642   1.428       .  A
C642        C643   1.522       .  S
C643        F647   1.385       .  S
C643       F1908   1.383       .  S
C643       F1909   1.384       .  S
C646        F650   1.381       .  S
C646        F651   1.383       .  S
C646        F652   1.385       .  S
F648       C1903   1.385       .  S
F649       C1903   1.383       .  S
C653        C654   1.413       .  A
C653        C658   1.408       .  A
C653        H660   1.078       .  S
C654        C655   1.409       .  A
C655        C656   1.392       .  A
C655        C662   1.519       .  S
C656        C657   1.408       .  A
C656        H661   1.082       .  S
C657        C658   1.407       .  A
C658        C659   1.515       .  S
C659        F663   1.384       .  S
C659        F664   1.383       .  S
C659        F665   1.381       .  S
C662        F666   1.383       .  S
C662        F667   1.384       .  S
C662        F668   1.385       .  S
C669        C670   1.414       .  A
C669        C674   1.429       .  A
C669        H676   1.078       .  S
C670        C671   1.425       .  A
C671        C672   1.414       .  A
C671        C678   1.520       .  S
C672        C673   1.409       .  A
C672        H677   1.082       .  S
C673        C674   1.423       .  A
C674        C675   1.516       .  S
C675        F679   1.383       .  S
C675        F680   1.378       .  S
C675        F681   1.382       .  S
C678        F682   1.381       .  S
C678        F683   1.384       .  S
C678        F684   1.385       .  S
C685        C686   1.426       .  A
C685        C690   1.427       .  A
C685        H692   1.082       .  S
C686        C687   1.418       .  A
C687        C688   1.426       .  A
C687        C694   1.516       .  S
C688        C689   1.422       .  A
C688        H693   1.081       .  S
C689        C690   1.410       .  A
C690        C691   1.512       .  S
C691        F695   1.384       .  S
C691        F696   1.382       .  S
C691        F697   1.383       .  S
C694        F698   1.382       .  S
C694        F699   1.384       .  S
C694        F700   1.384       .  S
C701        C702   1.402       .  A
C701        C706   1.405       .  A
C701        H708   1.083       .  S
C702        C703   1.405       .  A
C703        C704   1.405       .  A
C703        C710   1.511       .  S
C704        C705   1.414       .  A
C704        H709   1.082       .  S
C705       C1452   1.497   1_554  S
C705        C706   1.428       .  A
C706        C707   1.523       .  S
C707        F711   1.385       .  S
C707       F1972   1.383   1_554  S
C707       F1973   1.384   1_554  S
C710        F714   1.383       .  S
C710        F715   1.382       .  S
C710        F716   1.384       .  S
F712       C1967   1.383       .  S
F713       C1967   1.384       .  S
C717        C718   1.406       .  A
C717        C722   1.405       .  A
C717        H724   1.083       .  S
C718        C719   1.412       .  A
C719        C720   1.400       .  A
C719        C726   1.519       .  S
C720        C721   1.409       .  A
C720        H725   1.083       .  S
C721        C722   1.420       .  A
C722        C723   1.520       .  S
C723        F727   1.385       .  S
C723        F728   1.381       .  S
C723        F729   1.383       .  S
C726        F730   1.382       .  S
C726        F731   1.382       .  S
C726        F732   1.385       .  S
C733        C734   1.409       .  A
C733        C738   1.395       .  A
C733        H740   1.082       .  S
C734        C735   1.411       .  A
C735        C736   1.413       .  A
C735        C742   1.517       .  S
C736        C737   1.417       .  A
C736        H741   1.081       .  S
C737        C738   1.411       .  A
C738        C739   1.518       .  S
C739        F743   1.385       .  S
C739        F744   1.384       .  S
C739        F745   1.383       .  S
C742        F746   1.379       .  S
C742        F747   1.383       .  S
C742        F748   1.383       .  S
C749        C750   1.390       .  A
C749        C754   1.395       .  A
C749        H756   1.084       .  S
C750        C751   1.420       .  A
C751        C752   1.405       .  A
C751        C758   1.516       .  S
C752        C753   1.399       .  A
C752        H757   1.085       .  S
C753        C754   1.434       .  A
C754        C755   1.530       .  S
C755        F759   1.386       .  S
C755        F760   1.377       .  S
C755        F761   1.375       .  S
C758        F762   1.383       .  S
C758        F763   1.380       .  S
C758        F764   1.384       .  S
C765        C766   1.408       .  A
C765        C770   1.425       .  A
C765        H772   1.082       .  S
C766        C767   1.434       .  A
C767        C768   1.423       .  A
C767        C774   1.519       .  S
C768        C769   1.406       .  A
C768        H773   1.085       .  S
C769        C770   1.429       .  A
C770        C771   1.514       .  S
C771        F775   1.383       .  S
C771        F776   1.375       .  S
C771        F777   1.381       .  S
C774        F778   1.381       .  S
C774        F779   1.384       .  S
C774        F780   1.384       .  S
C781        C782   1.403       .  A
C781        C786   1.407       .  A
C781        H788   1.083       .  S
C782        C783   1.411       .  A
C783        C784   1.405       .  A
C783        C790   1.515       .  S
C784        C785   1.402       .  A
C784        H789   1.084       .  S
C785        C786   1.415       .  A
C786        C787   1.517       .  S
C787        F791   1.381       .  S
C787        F792   1.383       .  S
C787        F793   1.383       .  S
C790        F794   1.384       .  S
C790        F795   1.379       .  S
C790        F796   1.384       .  S
C797        C798   1.405       .  A
C797        C802   1.408       .  A
C797        H804   1.083       .  S
C798        C799   1.415       .  A
C799        C800   1.391       .  A
C799        C806   1.516       .  S
C800        C801   1.399       .  A
C800        H805   1.085       .  S
C801        C802   1.420       .  A
C802        C803   1.519       .  S
C803        F807   1.385       .  S
C803        F808   1.381       .  S
C803        F809   1.383       .  S
C806        F810   1.383       .  S
C806        F811   1.384       .  S
C806        F812   1.384       .  S
C813        C814   1.424       .  A
C813        C818   1.422       .  A
C813        H820   1.081       .  S
C814        C815   1.409       .  A
C815        C816   1.427       .  A
C815        C822   1.515       .  S
C816        C817   1.426       .  A
C816        H821   1.077       .  S
C817        C818   1.414       .  A
C818        C819   1.516       .  S
C819        F823   1.385       .  S
C819        F824   1.384       .  S
C819        F825   1.382       .  S
C822        F826   1.383       .  S
C822        F827   1.380       .  S
C822        F828   1.378       .  S
C829        C830   1.413       .  A
C829        C834   1.412       .  A
C829        H836   1.083       .  S
C830        C831   1.413       .  A
C831        C832   1.403       .  A
C831        C838   1.520       .  S
C832        C833   1.413       .  A
C832        H837   1.082       .  S
C833        C834   1.417       .  A
C834        C835   1.519       .  S
C835        F839   1.381       .  S
C835        F840   1.378       .  S
C835        F841   1.385       .  S
C838        F842   1.382       .  S
C838        F843   1.383       .  S
C838        F844   1.384       .  S
C845        C846   1.399       .  A
C845        C850   1.406       .  A
C845        H852   1.084       .  S
C846        C847   1.416       .  A
C847        C848   1.412       .  A
C847        C854   1.511       .  S
C848        C849   1.404       .  A
C848        H853   1.083       .  S
C849       C1430   1.488   1_554  S
C849        C850   1.425       .  A
C850        C851   1.523       .  S
C851        F855   1.385       .  S
C851        F857   1.384       .  S
C851       F2116   1.382       .  S
C854        F858   1.380       .  S
C854        F859   1.383       .  S
C854        F860   1.384       .  S
F856       C2111   1.384       .  S
C861        C862   1.404       .  A
C861        C866   1.408       .  A
C861        H868   1.083       .  S
C862        C863   1.405       .  A
C863        C864   1.398       .  A
C863        C870   1.517       .  S
C864        C865   1.403       .  A
C864        H869   1.076       .  S
C865        C866   1.413       .  A
C866        C867   1.518       .  S
C867        F871   1.384       .  S
C867        F872   1.382       .  S
C867        F873   1.383       .  S
C870        F874   1.384       .  S
C870        F875   1.382       .  S
C870        F876   1.378       .  S
C877        C878   1.426       .  A
C877        C882   1.422       .  A
C877       H2144   1.082       .  S
C878        C879   1.414       .  A
C879        C880   1.423       .  A
C879        C886   1.516       .  S
C880        C881   1.423       .  A
C880        H885   1.079       .  S
C881        C882   1.406       .  A
C882       C2143   1.511       .  S
C883       C2142   1.510       .  S
C883        F887   1.384       .  S
C883        F888   1.382       .  S
C883        F889   1.384       .  S
H884       C2137   1.082       .  S
C886        F890   1.382       .  S
C886        F891   1.384       .  S
C886        F892   1.385       .  S
C893        C894   1.410       .  A
C893        C898   1.424       .  A
C893        H900   1.074   1_455  S
C894        C895   1.422       .  A
C895        C896   1.425       .  A
C895        C902   1.515       .  S
C896        C897   1.416       .  A
C896        H901   1.084       .  S
C897        C898   1.425       .  A
C898        C899   1.520       .  S
C899        F903   1.382   1_455  S
C899        F904   1.383   1_455  S
C899        F905   1.375       .  S
C902        F906   1.383       .  S
C902        F907   1.383       .  S
C902        F908   1.382       .  S
C909        C910   1.423       .  A
C909        C914   1.420       .  A
C909        H916   1.082       .  S
C910        C911   1.417       .  A
C911        C912   1.417       .  A
C911        C918   1.520       .  S
C912        C913   1.419       .  A
C912        H917   1.079       .  S
C913        C914   1.405       .  A
C914        C915   1.510       .  S
C915        F919   1.383       .  S
C915        F920   1.383       .  S
C915        F921   1.382       .  S
C918        F922   1.384       .  S
C918        F923   1.383       .  S
C918        F924   1.385       .  S
C925        C926   1.410       .  A
C925        C930   1.422       .  A
C925        H932   1.075   1_455  S
C926        C927   1.420       .  A
C927        C928   1.420       .  A
C927        C934   1.516       .  S
C928        C929   1.414       .  A
C928        H933   1.084       .  S
C929        C930   1.422       .  A
C930        C931   1.520       .  S
C931        F935   1.381   1_455  S
C931        F936   1.377       .  S
C931        F937   1.383   1_455  S
C934        F938   1.384       .  S
C934        F939   1.382       .  S
C934        F940   1.384       .  S
C941        C942   1.409       .  A
C941        C946   1.402       .  A
C941        H948   1.083       .  S
C942        C943   1.420       .  A
C943        C944   1.407       .  A
C943        C950   1.519       .  S
C944        C945   1.407       .  A
C944        H949   1.083       .  S
C945        C946   1.412       .  A
C946        C947   1.512       .  S
C947        F951   1.381       .  S
C947        F952   1.385       .  S
C947        F953   1.372       .  S
C950        F954   1.382       .  S
C950        F955   1.383       .  S
C950        F956   1.385       .  S
C957        C958   1.414       .  A
C957        C962   1.395       .  A
C957        H964   1.081       .  S
C958        C959   1.422       .  A
C959        C960   1.408       .  A
C959        C966   1.520       .  S
C960        C961   1.404       .  A
C960        H965   1.083       .  S
C961        C962   1.406       .  A
C962        C963   1.517       .  S
C963        F967   1.385       .  S
C963        F968   1.382       .  S
C963        F969   1.381       .  S
C966        F970   1.384       .  S
C966        F971   1.382       .  S
C966        F972   1.385       .  S
C973        C974   1.429       .  A
C973        C978   1.423       .  A
C973        H980   1.082       .  S
C974        C975   1.420       .  A
C975        C976   1.419       .  A
C975        C982   1.519       .  S
C976        C977   1.418       .  A
C976        H981   1.079       .  S
C977        C978   1.405       .  A
C978        C979   1.514       .  S
C979        F983   1.384       .  S
C979        F984   1.384       .  S
C979        F985   1.381       .  S
C982        F986   1.384       .  S
C982        F987   1.382       .  S
C982        F988   1.385       .  S
C989        C990   1.424       .  A
C989        C994   1.423       .  A
C989        H996   1.081       .  S
C990        C991   1.410       .  A
C991        C992   1.423       .  A
C991        C998   1.509       .  S
C992        C993   1.420       .  A
C992        H997   1.083       .  S
C993        C994   1.415       .  A
C994        C995   1.517       .  S
C995        F999   1.385       .  S
C995       F1000   1.382       .  S
C995       F1001   1.384       .  S
C998       F1002   1.382       .  S
C998       F1003   1.383       .  S
C998       F1004   1.383       .  S
C1005      C1006   1.406       .  A
C1005      C1010   1.411       .  A
C1005      H1012   1.083       .  S
C1006      C1007   1.415       .  A
C1007      C1008   1.396       .  A
C1007      C1014   1.515       .  S
C1008      C1009   1.398       .  A
C1008      H1013   1.083       .  S
C1009      C1010   1.416       .  A
C1010      C1011   1.512       .  S
C1011      F1015   1.384       .  S
C1011      F1016   1.382       .  S
C1011      F1017   1.379       .  S
C1014      F1018   1.383       .  S
C1014      F1019   1.383       .  S
C1014      F1020   1.384       .  S
C1021      C1022   1.419       .  A
C1021      C1026   1.421       .  A
C1021      H1028   1.081       .  S
C1022      C1023   1.412       .  A
C1023      C1024   1.424       .  A
C1023      C1030   1.514       .  S
C1024      C1025   1.424       .  A
C1024      H2289   1.082       .  S
C1025      C1026   1.418       .  A
C1026      C1027   1.518       .  S
C1027      F1031   1.385       .  S
C1027      F1032   1.382       .  S
C1027      F1033   1.384       .  S
H1029      C2284   1.082       .  S
C1030      F1035   1.383       .  S
C1030      F2294   1.383       .  S
C1030      F2296   1.383       .  S
F1034      C2290   1.383       .  S
F1036      C2290   1.382       .  S
C1037      C1038   1.401       .  A
C1037      C1042   1.397       .  A
C1037      H1044   1.085       .  S
C1038      C2299   1.425       .  A
C1039      C1040   1.408       .  A
C1039      C2298   1.419       .  A
C1039      C1046   1.516       .  S
C1040      C1041   1.403       .  A
C1040      H1045   1.083       .  S
C1041      C2302   1.415       .  A
C1042      C2301   1.415       .  A
C1042      C1043   1.516       .  S
C1043      F1047   1.384       .  S
C1043      F1048   1.383       .  S
C1043      F1049   1.385       .  S
C1046      F1050   1.379       .  S
C1046      F1051   1.381       .  S
C1046      F1052   1.385       .  S
C1053      C1054   1.411       .  A
C1053      C1058   1.425       .  A
C1053      H1060   1.078       .  S
C1054      C1055   1.421       .  A
C1055      C1056   1.416       .  A
C1055      C1062   1.517       .  S
C1056      C1057   1.411       .  A
C1056      H1061   1.084       .  S
C1057      C1058   1.424       .  A
C1058      C1059   1.517       .  S
C1059      F1063   1.384       .  S
C1059      F1064   1.383       .  S
C1059      F1065   1.377       .  S
C1062      F1066   1.383       .  S
C1062      F1067   1.383       .  S
C1062      F1068   1.384       .  S
C1069      C1070   1.411       .  A
C1069      C1074   1.410       .  A
C1069      H1076   1.083       .  S
C1070      C1071   1.419       .  A
C1071      C1072   1.413       .  A
C1071      C1078   1.519       .  S
C1072      C1073   1.413       .  A
C1072      H1077   1.083       .  S
C1073      C1074   1.417       .  A
C1074      C1075   1.516       .  S
C1075      F1079   1.385       .  S
C1075      F1080   1.383       .  S
C1075      F1081   1.380       .  S
C1078      F1082   1.383       .  S
C1078      F1083   1.382       .  S
C1078      F1084   1.385       .  S
C1085      C1086   1.406       .  A
C1085      C1090   1.409       .  A
C1085      H1092   1.083       .  S
C1086      C1087   1.411       .  A
C1087      C1088   1.402       .  A
C1087      C1094   1.516       .  S
C1088      C1089   1.413       .  A
C1088      H1093   1.082       .  S
C1089      C1090   1.423       .  A
C1090      C1091   1.520       .  S
C1091      F1095   1.385       .  S
C1091      F1096   1.381       .  S
C1091      F1097   1.383       .  S
C1094      F1098   1.380       .  S
C1094      F1099   1.382       .  S
C1094      F1100   1.385       .  S
C1101      C1102   1.416       .  A
C1101      C1106   1.434       .  A
C1101      H1108   1.083       .  S
C1102      C1103   1.430       .  A
C1103      C1104   1.435       .  A
C1103      C1110   1.517       .  S
C1104      C1105   1.415       .  A
C1104      H1109   1.075       .  S
C1105      C1106   1.430       .  A
C1106      C1107   1.518       .  S
C1107      F1111   1.384       .  S
C1107      F1112   1.382       .  S
C1107      F1113   1.384       .  S
C1110      F1114   1.382       .  S
C1110      F1115   1.376       .  S
C1110      F1116   1.381       .  S
C1117      C1118   1.403       .  A
C1117      C1122   1.404       .  A
C1117      H1124   1.083       .  S
C1118      C1119   1.423       .  A
C1119      C1120   1.410       .  A
C1119      C1126   1.516       .  S
C1120      C1121   1.402       .  A
C1120      H1125   1.083       .  S
C1121      C1122   1.412       .  A
C1122      C1123   1.519       .  S
C1123      F1127   1.380       .  S
C1123      F1128   1.383       .  S
C1123      F1129   1.380       .  S
C1126      F1130   1.384       .  S
C1126      F1131   1.380       .  S
C1126      F1132   1.378       .  S
C1133      C1134   1.410       .  A
C1133      C1138   1.426       .  A
C1133      H1140   1.082       .  S
C1134      C1135   1.427       .  A
C1135      C1136   1.420       .  A
C1135      C1142   1.519       .  S
C1136      C1137   1.409       .  A
C1136      H1141   1.084       .  S
C1137      C1138   1.432       .  A
C1138      C1139   1.520       .  S
C1139      F1143   1.376       .  S
C1139      F1144   1.382       .  S
C1139      F1145   1.377       .  S
C1142      F1146   1.384       .  S
C1142      F1147   1.381       .  S
C1142      F1148   1.385       .  S
C1149      C1150   1.400       .  A
C1149      C1154   1.395       .  A
C1149      H1156   1.081       .  S
C1150      C1151   1.408       .  A
C1151      C1152   1.398       .  A
C1151      C1158   1.512       .  S
C1152      C1153   1.400       .  A
C1152      H1157   1.084       .  S
C1153      C1154   1.409       .  A
C1154      C1155   1.517       .  S
C1155      F1159   1.381       .  S
C1155      F1160   1.382       .  S
C1155      F1161   1.384       .  S
C1158      F1162   1.385       .  S
C1158      F1163   1.379       .  S
C1158      F1164   1.383       .  S
C1165      C1166   1.429       .  A
C1165      C1170   1.427       .  A
C1165      H1172   1.081       .  S
C1166      C1167   1.422       .  A
C1167      C1168   1.433       .  A
C1167      C2434   1.514       .  S
C1168      C1169   1.419       .  A
C1168      H2433   1.079       .  S
C1169      C1170   1.411       .  A
C1170      C1171   1.515       .  S
C1171      F1175   1.384       .  S
C1171      F1176   1.383       .  S
C1171      F1177   1.383       .  S
H1173      C2428   1.080       .  S
C1174      C2427   1.519       .  S
C1174      F1178   1.380       .  S
C1174      F1180   1.384       .  S
C1174      F2439   1.382       .  S
F1179      C2434   1.382       .  S
C1181      C1182   1.403       .  A
C1181      C1186   1.397       .  A
C1181      H1188   1.084       .  S
C1182      C1183   1.412       .  A
C1183      C2444   1.411       .  A
C1183      C2450   1.518       .  S
C1184      C1185   1.409       .  A
C1184      C2443   1.410       .  A
C1184      H1189   1.082       .  S
C1185      C2446   1.418       .  A
C1186      C2445   1.418       .  A
C1186      C1187   1.514       .  S
C1187      F1191   1.385       .  S
C1187      F1192   1.382       .  S
C1187      F2453   1.382       .  S
C1190      C2443   1.519       .  S
C1190      F1195   1.376       .  S
C1190      F1196   1.384       .  S
C1190      F2454   1.383       .  S
F1193      C2447   1.382       .  S
F1194      C2450   1.383       .  S
C1197      C1198   1.426       .  A
C1197      C1202   1.418       .  A
C1197      H1204   1.081       .  S
C1198      C1199   1.420       .  A
C1199      C1200   1.424       .  A
C1199      C1206   1.515       .  S
C1200      C1201   1.415       .  A
C1200      H1205   1.079       .  S
C1201      C1202   1.407       .  A
C1202      C1203   1.514       .  S
C1203      F1207   1.385   1_565  S
C1203      F1208   1.374       .  S
C1203      F1209   1.384       .  S
C1206      F1210   1.383       .  S
C1206      F1211   1.382       .  S
C1206      F1212   1.384       .  S
C1213      C1214   1.405       .  A
C1213      C1218   1.406       .  A
C1213      H1220   1.083       .  S
C1214      C1215   1.414       .  A
C1215      C1216   1.402       .  A
C1215      C1222   1.513       .  S
C1216      C1217   1.408       .  A
C1216      H1221   1.082       .  S
C1217      C1218   1.424       .  A
C1218      C1219   1.523       .  S
C1219      F1223   1.384       .  S
C1219      F1224   1.383       .  S
C1219      F1225   1.385       .  S
C1222      F1226   1.382       .  S
C1222      F1227   1.378       .  S
C1222      F1228   1.385       .  S
C1229      C1230   1.407       .  A
C1229      C1234   1.401       .  A
C1229      H1236   1.083       .  S
C1230      C1231   1.417       .  A
C1231      C1232   1.410       .  A
C1231      C1238   1.516       .  S
C1232      C1233   1.409       .  A
C1232      H1237   1.083       .  S
C1233      C1234   1.420       .  A
C1234      C1235   1.521       .  S
C1235      F1239   1.385       .  S
C1235      F1240   1.379       .  S
C1235      F1241   1.382       .  S
C1238      F1242   1.381       .  S
C1238      F1243   1.383       .  S
C1238      F1244   1.385       .  S
C1245      C1250   1.404       .  A
C1245      C2506   1.405       .  A
C1245      H1252   1.078       .  S
C1246      C1247   1.402   1_556  A
C1246      C2505   1.403       .  A
C1247      C1248   1.391       .  A
C1247      C1254   1.521       .  S
C1248      C2509   1.406   1_554  A
C1248      H1253   1.065       .  S
C1249      C1250   1.406       .  A
C1249      C2508   1.405       .  A
C1250      C1251   1.516       .  S
C1251      F1255   1.380       .  S
C1251      F1256   1.383       .  S
C1251      F1257   1.384       .  S
C1254      F1258   1.382       .  S
C1254      F1259   1.382       .  S
C1254      F1260   1.385       .  S
Fe1261     O1277   2.034       .  S
Fe1261     O1267   2.113       .  S
Fe1261     O1274   2.091       .  S
Fe1261     O1266   2.017       .  S
Fe1261     O1272   1.899       .  S
Fe1262     O1265   2.002       .  S
Fe1262     O1273   2.017   1_554  S
Fe1262     O1278   2.127   1_554  S
Fe1263     O1281   2.192       .  S
Fe1263     O1268   2.030       .  S
Fe1263     O1264   2.115       .  S
O1264      C1271   1.270       .  A
O1265      C1279   1.241   1_544  A
O1267      C1270   1.281       .  A
O1268      C1280   1.271       .  A
O1269      C1282   1.277       .  A
C1270      O1275   1.294       .  A
C1270      C2429   1.522       .  S
C1271      C2509   1.457       .  S
O1274      C1276   1.273       .  A
C1276      C2445   1.480       .  S
O1277      C1282   1.268       .  A
O1278      C1280   1.281       .  A
C1279      O1281   1.282   1_565  A
C1279      C2458   1.532       .  S
C1280      C2490   1.486       .  S
C1282      C2477   1.496       .  S
Fe1283     O1299   2.100       .  S
Fe1283     O1289   2.037       .  S
Fe1283     O1296   2.067       .  S
Fe1283     O1288   2.118       .  S
Fe1283     O1294   1.914       .  S
Fe1284     O1287   2.122       .  S
Fe1284     O1291   2.008       .  S
Fe1284     O1295   2.066       .  S
Fe1284     O1300   1.997       .  S
Fe1284     O1294   1.932       .  S
Fe1285     O1303   2.014       .  S
Fe1285     O1290   2.201       .  S
Fe1285     O1297   2.086       .  S
Fe1285     O1286   2.137       .  S
Fe1285     O1294   1.978       .  S
O1286      C1293   1.300       .  A
O1287      C1301   1.284       .  A
O1288      C1293   1.283       .  A
O1289      C1292   1.262       .  A
O1290      C1302   1.282   1_545  A
O1291      C1304   1.252       .  A
C1292      O1297   1.271       .  A
C1292      C2410   1.455       .  S
C1293      C2362   1.540       .  S
O1295      C1298   1.272       .  A
O1296      C1298   1.274       .  A
C1298      C2493   1.487       .  S
O1299      C1304   1.277       .  A
O1300      C1302   1.236   1_545  A
C1301      O1303   1.263       .  A
C1301      C2474   1.468       .  S
C1302      C2394   1.530       .  S
C1304      C2378   1.476       .  S
Fe1305     O1321   2.038       .  S
Fe1305     O1311   2.100       .  S
Fe1305     O1318   2.080       .  S
Fe1305     O1310   2.016       .  S
Fe1306     O1309   2.012   1_556  S
Fe1306     O1317   2.032       .  S
Fe1306     O1322   2.126       .  S
Fe1306     O1316   1.933       .  S
Fe1307     O1325   2.176       .  S
Fe1307     O1312   2.017       .  S
Fe1307     O1308   2.112       .  S
Fe1307     O1316   1.974       .  S
O1308      C1315   1.273       .  A
O1309      C1323   1.245   1_554  A
O1311      C1314   1.277       .  A
O1312      C1324   1.266       .  A
O1313      C1326   1.275       .  A
C1314      O1319   1.293       .  A
C1314      C2285   1.517       .  S
C1315      C2442   1.477       .  S
O1318      C1320   1.271       .  A
C1320      C2298   1.473       .  S
O1321      C1326   1.270       .  A
O1322      C1324   1.288       .  A
C1323      O1325   1.280       .  A
C1323      C2314   1.512       .  S
C1324      C2346   1.470       .  S
C1326      C2330   1.485       .  S
Fe1327     O1343   2.073       .  S
Fe1327     O1333   2.024       .  S
Fe1327     O1340   2.029       .  S
Fe1327     O1332   2.096       .  S
Fe1327     O1338   1.916       .  S
Fe1328     O1331   2.132       .  S
Fe1328     O1335   2.001       .  S
Fe1328     O1339   2.093       .  S
Fe1328     O1344   2.000       .  S
Fe1328     O1338   1.935       .  S
Fe1329     O1347   2.018       .  S
Fe1329     O1334   2.224       .  S
Fe1329     O1341   2.140       .  S
Fe1329     O1330   2.120       .  S
Fe1329     O1338   1.962       .  S
O1330      C1337   1.295       .  A
O1331      C1345   1.282       .  A
O1332      C1337   1.278       .  A
O1333      C1336   1.258       .  A
O1334      C1346   1.292       .  A
O1335      C1348   1.253       .  A
C1336      O1341   1.278       .  A
C1336      C2266   1.483       .  S
C1337      C2234   1.519       .  S
O1339      C1342   1.276       .  A
O1340      C1342   1.269       .  A
C1342      C2349   1.496       .  S
O1343      C1348   1.268       .  A
O1344      C1346   1.242       .  A
C1345      O1347   1.267       .  A
C1345      C2333   1.481       .  S
C1346      C2250   1.542       .  S
C1348      C2413   1.449       .  S
Fe1349     O1365   2.098       .  S
Fe1349     O1355   2.011       .  S
Fe1349     O1362   2.036       .  S
Fe1349     O1354   2.101       .  S
Fe1349     O1360   1.918       .  S
Fe1350     O1353   2.111       .  S
Fe1350     O1357   2.035       .  S
Fe1350     O1361   2.084       .  S
Fe1350     O1366   2.018       .  S
Fe1350     O1360   1.936       .  S
Fe1351     O1369   2.023       .  S
Fe1351     O1356   2.196       .  S
Fe1351     O1363   2.127       .  S
Fe1351     O1352   2.118       .  S
Fe1351     O1360   1.970       .  S
O1352      C1359   1.293       .  A
O1353      C1367   1.284       .  A
O1354      C1359   1.279       .  A
O1355      C1358   1.260       .  A
O1356      C1368   1.286       .  A
O1357      C1370   1.257       .  A
C1358      O1363   1.279       .  A
C1358      C2381   1.476       .  S
C1359      C2170   1.530       .  S
O1361      C1364   1.275       .  A
O1362      C1364   1.269       .  A
C1364      C2202   1.488       .  S
O1365      C1370   1.273       .  A
O1366      C1368   1.245       .  A
C1367      O1369   1.268       .  A
C1367      C2221   1.473       .  S
C1368      C2186   1.524   1_655  S
C1370      C2269   1.484       .  S
Fe1371     O1387   2.020       .  S
Fe1371     O1377   2.075       .  S
Fe1371     O1384   2.062       .  S
Fe1371     O1376   2.016       .  S
Fe1371     O1382   1.921       .  S
Fe1372     O1375   2.020       .  S
Fe1372     O1383   2.022   1_554  S
Fe1372     O1388   2.108   1_554  S
Fe1373     O1391   2.217       .  S
Fe1373     O1378   2.026       .  S
Fe1373     O1374   2.136       .  S
O1374      C1381   1.283       .  A
O1375      C1389   1.250   1_554  A
O1377      C1380   1.272       .  A
O1378      C1390   1.267       .  A
O1379      C1392   1.280       .  A
C1380      O1385   1.293       .  A
C1380      C2138   1.527       .  S
C1381      C2301   1.479       .  S
O1384      C1386   1.263       .  A
C1386      C2506   1.460       .  S
O1387      C1392   1.269       .  A
O1388      C1390   1.281       .  A
C1389      O1391   1.295       .  A
C1389      C2154   1.535   1_655  S
C1390      C2205   1.480       .  S
C1392      C2218   1.497       .  S
Fe1393     O1409   2.038       .  S
Fe1393     O1399   2.082       .  S
Fe1393     O1406   2.081       .  S
Fe1393     O1398   2.026       .  S
Fe1393     O1404   1.919       .  S
Fe1394     O1397   2.004       .  S
Fe1394     O1401   2.096       .  S
Fe1394     O1405   2.021       .  S
Fe1394     O1410   2.122       .  S
Fe1394     O1404   1.928       .  S
Fe1395     O1413   2.222       .  S
Fe1395     O1400   2.036       .  S
Fe1395     O1407   2.128       .  S
Fe1395     O1396   2.140       .  S
Fe1395     O1404   1.952       .  S
O1396      C1403   1.283       .  A
O1397      C1411   1.245       .  A
O1398      C1403   1.263       .  A
O1399      C1402   1.273       .  A
O1400      C1412   1.268       .  A
O1401      C1414   1.278       .  A
C1402      O1407   1.294       .  A
C1402      C2397   1.518       .  S
C1403      C2125   1.473       .  S
O1405      C1408   1.255       .  A
O1406      C1408   1.272       .  A
C1408      C2061   1.472       .  S
O1409      C1414   1.268       .  A
O1410      C1412   1.282       .  A
C1411      O1413   1.293       .  A
C1411      C2074   1.538       .  S
C1412      C2106   1.480       .  S
C1414      C2090   1.490       .  S
Fe1415     O1431   2.060       .  S
Fe1415     O1421   2.018       .  S
Fe1415     O1428   2.027       .  S
Fe1415     O1420   2.089       .  S
Fe1415     O1426   1.911       .  S
Fe1416     O1419   2.119       .  S
Fe1416     O1423   2.044       .  S
Fe1416     O1427   2.129       .  S
Fe1416     O1432   2.026       .  S
Fe1416     O1426   1.936       .  S
Fe1417     O1435   2.021       .  S
Fe1417     O1422   2.192       .  S
Fe1417     O1429   2.131       .  S
Fe1417     O1418   2.113       .  S
Fe1417     O1426   1.952       .  S
O1418      C1425   1.291       .  A
O1419      C1433   1.282       .  A
O1420      C1425   1.276       .  A
O1421      C1424   1.255       .  A
O1422      C1434   1.292       .  A
O1423      C1436   1.257       .  A
C1424      O1429   1.277       .  A
C1424      C2042   1.473       .  S
C1425      C2317   1.513       .  S
O1427      C1430   1.286       .  A
O1428      C1430   1.266       .  A
O1431      C1436   1.268       .  A
O1432      C1434   1.254       .  A
C1433      O1435   1.267       .  A
C1433      C2093   1.485       .  S
C1434      C2026   1.527       .  S
C1436      C2010   1.465       .  S
Fe1437     O1453   2.093       .  S
Fe1437     O1443   2.026       .  S
Fe1437     O1450   2.051       .  S
Fe1437     O1442   2.133       .  S
Fe1437     O1448   1.908       .  S
Fe1438     O1441   2.125       .  S
Fe1438     O1445   2.024       .  S
Fe1438     O1449   2.079       .  S
Fe1438     O1454   2.002       .  S
Fe1438     O1448   1.923       .  S
Fe1439     O1457   2.031       .  S
Fe1439     O1444   2.202       .  S
Fe1439     O1451   2.139       .  S
Fe1439     O1440   2.119       .  S
Fe1439     O1448   1.988       .  S
O1440      C1447   1.294       .  A
O1441      C1455   1.280       .  A
O1442      C1447   1.283       .  A
O1443      C1446   1.249       .  A
O1444      C1456   1.287       .  A
O1445      C1458   1.256       .  A
C1446      O1451   1.271       .  A
C1446      C1994   1.479       .  S
C1447      C2157   1.534       .  S
O1449      C1452   1.274       .  A
O1450      C1452   1.273       .  A
O1453      C1458   1.272       .  A
O1454      C1456   1.241       .  A
C1455      O1457   1.269       .  A
C1455      C1978   1.472       .  S
C1456      C1949   1.526       .  S
C1458      C2045   1.476       .  S
Fe1459     O1475   2.027       .  S
Fe1459     O1465   2.104       .  S
Fe1459     O1472   2.081       .  S
Fe1459     O1464   2.016       .  S
Fe1459     O1470   1.913       .  S
Fe1460     O1463   2.012       .  S
Fe1460     O1467   2.110       .  S
Fe1460     O1471   2.023       .  S
Fe1460     O1476   2.128       .  S
Fe1460     O1470   1.945       .  S
Fe1461     O1479   2.200       .  S
Fe1461     O1466   2.007       .  S
Fe1461     O1473   2.139       .  S
Fe1461     O1462   2.107       .  S
Fe1461     O1470   1.963       .  S
O1462      C1469   1.276       .  A
O1463      C1477   1.249       .  A
O1464      C1469   1.261       .  A
O1465      C1468   1.279       .  A
O1466      C1478   1.263       .  A
O1467      C1480   1.281       .  A
C1468      O1473   1.298       .  A
C1468      C2253   1.542       .  S
C1469      C2058   1.471       .  S
O1471      C1474   1.256       .  A
O1472      C1474   1.269       .  A
C1474      C1914   1.487       .  S
O1475      C1480   1.270       .  A
O1476      C1478   1.286       .  A
C1477      O1479   1.288       .  A
C1477      C1930   1.535       .  S
C1478      C1962   1.469       .  S
C1480      C1981   1.500       .  S
Fe1481     O1497   2.018       .  S
Fe1481     O1487   2.133       .  S
Fe1481     O1494   2.092       .  S
Fe1481     O1486   2.025       .  S
Fe1481     O1492   1.898       .  S
Fe1482     O1485   1.997       .  S
Fe1482     O1489   2.121       .  S
Fe1482     O1493   2.040       .  S
Fe1482     O1498   2.157       .  S
Fe1482     O1492   1.906       .  S
Fe1483     O1501   2.232       .  S
Fe1483     O1488   2.013       .  S
Fe1483     O1495   2.108       .  S
Fe1483     O1484   2.157       .  S
Fe1483     O1492   1.966       .  S
O1484      C1491   1.276       .  A
O1485      C1499   1.237       .  A
O1486      C1491   1.248       .  A
O1487      C1490   1.282       .  A
O1488      C1500   1.261       .  A
O1489      C1502   1.282       .  A
C1490      O1495   1.292       .  A
C1490      C2189   1.524       .  S
C1491      C1917   1.485       .  S
O1493      C1496   1.257       .  A
O1494      C1496   1.270       .  A
C1496      C2122   1.475       .  S
O1497      C1502   1.268       .  A
O1498      C1500   1.287       .  A
C1499      O1501   1.294       .  A
C1499      C1866   1.543       .  S
C1500      C1898   1.486       .  S
C1502      C1885   1.499       .  S
Fe1503     O1519   2.069       .  S
Fe1503     O1509   2.005       .  S
Fe1503     O1516   1.981       .  S
Fe1503     O1508   2.102       .  S
Fe1503     O1514   1.889       .  S
Fe1504     O1507   2.136       .  S
Fe1504     O1511   2.030       .  S
Fe1504     O1515   2.120       .  S
Fe1504     O1520   2.018       .  S
Fe1504     O1514   1.929       .  S
Fe1505     O1523   2.010       .  S
Fe1505     O1510   2.207       .  S
Fe1505     O1517   2.156       .  S
Fe1505     O1506   2.104       .  S
Fe1505     O1514   1.958       .  S
O1506      C1513   1.289       .  A
O1507      C1521   1.288       .  A
O1508      C1513   1.276       .  A
O1509      C1512   1.245       .  A
O1510      C1522   1.292       .  A
O1511      C1524   1.259       .  A
C1512      O1517   1.280       .  A
C1512      C2013   1.479       .  S
C1513      C2461   1.511       .  S
O1515      C1518   1.285       .  A
O1516      C1518   1.255       .  A
O1519      C1524   1.268       .  A
O1520      C1522   1.252       .  A
C1521      O1523   1.265       .  A
C1521      C1882   1.468       .  S
C1522      C1850   1.529       .  S
C1524      C1997   1.482       .  S
Fe1525     O1541   2.054       .  S
Fe1525     O1531   2.083       .  S
Fe1525     O1538   2.074       .  S
Fe1525     O1530   2.033       .  S
Fe1525     O1536   1.928       .  S
Fe1526     O1529   2.010       .  S
Fe1526     O1533   2.098       .  S
Fe1526     O1537   2.005       .  S
Fe1526     O1542   2.139       .  S
Fe1526     O1536   1.939       .  S
Fe1527     O1545   2.203       .  S
Fe1527     O1532   2.031       .  S
Fe1527     O1539   2.138       .  S
Fe1527     O1528   2.109       .  S
Fe1527     O1536   1.972       .  S
O1528      C1535   1.275       .  A
O1529      C1543   1.243       .  A
O1530      C1535   1.263       .  A
O1531      C1534   1.276       .  A
O1532      C1544   1.269       .  A
O1533      C1546   1.278       .  A
C1534      O1539   1.300       .  A
C1534      C1946   1.535       .  S
C1535      C1834   1.474       .  S
O1537      C1540   1.250       .  A
O1538      C1540   1.268       .  A
C1540      C1786   1.464   1_545  S
O1541      C1546   1.272       .  A
O1542      C1544   1.291       .  A
C1543      O1545   1.285       .  A
C1543      C2365   1.535       .  S
C1544      C1821   1.487       .  S
C1546      C1802   1.507       .  S
Fe1547     O1563   2.056       .  S
Fe1547     O1553   2.023   1_545  S
Fe1547     O1560   2.098       .  S
Fe1547     O1552   2.049   1_545  S
Fe1547     O1558   1.933       .  S
Fe1548     O1551   2.079       .  S
Fe1548     O1555   2.040       .  S
Fe1548     O1559   2.073       .  S
Fe1548     O1564   1.987       .  S
Fe1548     O1558   1.944       .  S
Fe1549     O1567   2.096       .  S
Fe1549     O1554   2.172       .  S
Fe1549     O1561   2.098   1_545  S
Fe1549     O1550   2.153   1_545  S
Fe1549     O1558   1.946       .  S
O1550      C1557   1.296       .  A
O1551      C1565   1.284       .  A
O1552      C1557   1.267       .  A
O1553      C1556   1.264       .  A
O1554      C1566   1.292       .  A
O1555      C1568   1.251       .  A
C1556      O1561   1.274       .  A
C1556      C1770   1.467       .  S
C1557      C1869   1.526       .  S
O1559      C1562   1.277       .  A
O1560      C1562   1.283       .  A
C1562      C1818   1.509       .  S
O1563      C1568   1.252       .  A
O1564      C1566   1.249       .  A
C1565      O1567   1.281       .  A
C1566      C2282   1.516       .  S
C1568      C1757   1.484       .  S
Fe1569     O1585   2.049       .  S
Fe1569     O1575   2.089   1_655  S
Fe1569     O1582   2.078       .  S
Fe1569     O1574   2.026       .  S
Fe1569     O1580   1.917       .  S
Fe1570     O1573   2.017       .  S
Fe1570     O1577   2.105       .  S
Fe1570     O1581   2.038       .  S
Fe1570     O1586   2.125       .  S
Fe1570     O1580   1.937       .  S
Fe1571     O1589   2.179       .  S
Fe1571     O1576   2.014       .  S
Fe1571     O1583   2.132       .  S
Fe1571     O1572   2.084   1_655  S
Fe1571     O1580   1.974       .  S
O1572      C1579   1.272       .  A
O1573      C1587   1.247       .  A
O1574      C1579   1.266   1_655  A
O1575      C1578   1.275       .  A
O1576      C1588   1.262       .  A
O1577      C1590   1.280       .  A
C1578      O1583   1.294   1_455  A
C1578      C1853   1.532       .  S
C1579      C1789   1.455       .  S
O1581      C1584   1.258       .  A
O1582      C1584   1.267       .  A
C1584      C1706   1.491       .  S
O1585      C1590   1.274       .  A
O1586      C1588   1.285       .  A
C1587      O1589   1.287       .  A
C1587      C2237   1.514       .  S
C1588      C1738   1.484       .  S
C1590      C1722   1.500       .  S
Fe1591     O1607   2.107       .  S
Fe1591     O1597   2.026       .  S
Fe1591     O1604   2.053       .  S
Fe1591     O1596   2.150       .  S
Fe1591     O1602   1.894       .  S
Fe1592     O1595   2.153       .  S
Fe1592     O1599   2.020       .  S
Fe1592     O1603   2.086       .  S
Fe1592     O1608   1.993       .  S
Fe1592     O1602   1.920       .  S
Fe1593     O1611   2.022       .  S
Fe1593     O1598   2.207       .  S
Fe1593     O1605   2.138       .  S
Fe1593     O1594   2.118       .  S
Fe1593     O1602   1.979       .  S
O1594      C1601   1.296       .  A
O1595      C1609   1.288       .  A
O1596      C1601   1.288       .  A
O1597      C1600   1.249       .  A
O1598      C1610   1.286       .  A
O1599      C1612   1.254       .  A
C1600      O1605   1.274       .  A
C1600      C1690   1.479       .  S
C1601      C2077   1.548       .  S
O1603      C1606   1.276       .  A
O1604      C1606   1.275       .  A
C1606      C1741   1.501       .  S
O1607      C1612   1.276       .  A
O1608      C1610   1.235       .  A
C1609      O1611   1.269       .  A
C1610      C2141   1.527       .  S
C1612      C1773   1.478   1_655  S
Fe1613     O1629   2.035       .  S
Fe1613     O1619   2.135   1_545  S
Fe1613     O1626   2.081       .  S
Fe1613     O1618   2.023       .  S
Fe1613     O1624   1.898       .  S
Fe1614     O1617   2.003       .  S
Fe1614     O1621   2.102       .  S
Fe1614     O1625   2.034       .  S
Fe1614     O1630   2.135       .  S
Fe1614     O1624   1.916       .  S
Fe1615     O1633   2.215       .  S
Fe1615     O1620   2.023       .  S
Fe1615     O1627   2.120   1_545  S
Fe1615     O1616   2.142   1_545  S
Fe1615     O1624   1.967       .  S
O1616      C1623   1.279       .  A
O1617      C1631   1.243       .  A
O1618      C1623   1.246   1_545  A
O1619      C1622   1.281       .  A
O1620      C1632   1.265       .  A
O1621      C1634   1.281       .  A
C1622      O1627   1.293       .  A
C1622      C2029   1.529       .  S
C1623      C1709   1.479       .  S
O1625      C1628   1.256       .  A
O1626      C1628   1.270       .  A
C1628      C1837   1.470       .  S
O1629      C1634   1.271       .  A
O1630      C1632   1.280       .  A
C1631      O1633   1.292       .  A
C1631      C2173   1.531       .  S
C1632      C1677   1.477       .  S
C1634      C1661   1.498       .  S
Fe1635     O1651   2.072       .  S
Fe1635     O1641   2.012       .  S
Fe1635     O1648   2.030       .  S
Fe1635     O1640   2.063       .  S
Fe1635     O1646   1.907       .  S
Fe1636     O1639   2.138       .  S
Fe1636     O1643   2.033       .  S
Fe1636     O1647   2.104       .  S
Fe1636     O1652   2.002       .  S
Fe1636     O1646   1.932       .  S
Fe1637     O1655   2.020       .  S
Fe1637     O1642   2.209       .  S
Fe1637     O1649   2.110       .  S
Fe1637     O1638   2.150       .  S
Fe1637     O1646   1.963       .  S
O1638      C1645   1.297   1_655  A
O1639      C1653   1.283       .  A
O1640      C1645   1.269   1_655  A
O1641      C1644   1.270       .  A
O1642      C1654   1.289       .  A
O1643      C1656   1.259       .  A
C1644      O1649   1.279       .  A
C1644      C1754   1.477   1_655  S
C1645      C1933   1.532       .  S
O1647      C1650   1.281       .  A
O1648      C1650   1.266       .  A
C1650      C1674   1.485       .  S
O1651      C1656   1.265       .  A
O1652      C1654   1.242       .  A
C1653      O1655   1.263       .  A
C1654      C2426   1.543       .  S
C1656      C1693   1.489   1_545  S
C1657      C1658   1.408       .  A
C1657      C1662   1.404       .  A
C1657      H1664   1.080       .  S
C1658      C1659   1.408       .  A
C1659      C1660   1.410       .  A
C1659      C1666   1.513       .  S
C1660      C1661   1.417       .  A
C1660      H1665   1.082       .  S
C1661      C1662   1.420       .  A
C1662      C1663   1.522       .  S
C1663      F1667   1.385       .  S
C1663      F1668   1.384       .  S
C1663      F1669   1.382       .  S
C1666      F1670   1.382   1_556  S
C1666      F1672   1.383   1_556  S
C1673      C1674   1.401       .  A
C1673      C1678   1.400       .  A
C1673      H1680   1.084       .  S
C1674      C1675   1.427       .  A
C1675      C1676   1.406       .  A
C1675      C1682   1.518       .  S
C1676      C1677   1.398       .  A
C1676      H1681   1.084       .  S
C1677      C1678   1.420       .  A
C1678      C1679   1.518       .  S
C1679      F1683   1.385       .  S
C1679      F1684   1.383       .  S
C1679      F1685   1.383       .  S
C1682      F1686   1.384       .  S
C1682      F1687   1.382       .  S
C1682      F1688   1.385       .  S
C1689      C1690   1.406       .  A
C1689      C1694   1.395       .  A
C1689      H1696   1.081       .  S
C1690      C1691   1.406       .  A
C1691      C1692   1.410       .  A
C1691      C1698   1.515       .  S
C1692      C1693   1.417       .  A
C1692      H1697   1.082       .  S
C1693      C1694   1.422       .  A
C1694      C1695   1.527       .  S
C1695      F1699   1.385       .  S
C1695      F1700   1.384       .  S
C1695      F1701   1.383   1_565  S
C1698      F1702   1.382       .  S
C1698      F1703   1.383       .  S
C1698      F1704   1.384       .  S
C1705      C1706   1.416       .  A
C1705      C1710   1.410       .  A
C1705      H1712   1.077       .  S
C1706      C1707   1.416       .  A
C1707      C1708   1.396       .  A
C1707      C1714   1.524       .  S
C1708      C1709   1.410       .  A
C1708      H1713   1.080       .  S
C1709      C1710   1.408       .  A
C1710      C1711   1.518       .  S
C1711      F1715   1.384       .  S
C1711      F1716   1.382       .  S
C1711      F1717   1.380       .  S
C1714      F1718   1.383       .  S
C1714      F1719   1.384       .  S
C1714      F1720   1.385       .  S
C1721      C1722   1.411       .  A
C1721      C1726   1.409       .  A
C1721      H1728   1.082       .  S
C1722      C1723   1.422       .  A
C1723      C1724   1.410       .  A
C1723      C1730   1.521       .  S
C1724      C1725   1.409       .  A
C1724      H1729   1.083       .  S
C1725      C1726   1.418       .  A
C1726      C1727   1.516       .  S
C1727      F1731   1.385       .  S
C1730      F1734   1.384       .  S
C1730      F1735   1.383       .  S
C1730      F1736   1.385       .  S
C1737      C1738   1.405       .  A
C1737      C1742   1.410       .  A
C1737      H1744   1.083       .  S
C1738      C1739   1.408       .  A
C1739      C1740   1.405       .  A
C1739      C1746   1.508       .  S
C1740      C1741   1.411       .  A
C1740      H1745   1.082       .  S
C1741      C1742   1.427       .  A
C1742      C1743   1.521       .  S
C1743      F1747   1.385       .  S
C1743      F1748   1.383       .  S
C1743      F1749   1.383       .  S
C1746      F1750   1.383       .  S
C1746      F1751   1.383       .  S
C1746      F1752   1.382       .  S
C1753      C1754   1.400       .  A
C1753      C1758   1.402       .  A
C1753      H1760   1.083   1_455  S
C1754      C1755   1.403       .  A
C1755      C1756   1.401       .  A
C1755      C1762   1.509       .  S
C1756      C1757   1.412       .  A
C1756      H1761   1.084       .  S
C1757      C1758   1.423       .  A
C1758      C1759   1.515       .  S
C1759      F1763   1.384   1_445  S
C1759      F1764   1.383   1_545  S
C1759      F1765   1.380   1_545  S
C1762      F1766   1.382       .  S
C1762      F1767   1.383       .  S
C1762      F1768   1.384       .  S
C1769      C1770   1.402       .  A
C1769      C1774   1.408       .  A
C1769      H1776   1.083       .  S
C1770      C1771   1.410       .  A
C1771      C1772   1.409       .  A
C1771      C1778   1.514       .  S
C1772      C1773   1.405       .  A
C1772      H1777   1.083       .  S
C1773      C1774   1.415       .  A
C1774      C1775   1.514   1_455  S
C1775      F1779   1.384       .  S
C1775      F1780   1.375       .  S
C1775      F1781   1.383       .  S
C1778      F1782   1.379       .  S
C1778      F1783   1.383       .  S
C1778      F1784   1.384       .  S
C1785      C1786   1.401       .  A
C1785      C1790   1.391       .  A
C1785      H1792   1.081       .  S
C1786      C1787   1.421       .  A
C1787      C1788   1.403       .  A
C1787      C1794   1.519       .  S
C1788      C1789   1.399       .  A
C1788      H1793   1.082       .  S
C1789      C1790   1.406       .  A
C1790      C1791   1.513       .  S
C1791      F1795   1.384       .  S
C1791      F1796   1.383   1_455  S
C1791      F1797   1.385   1_455  S
C1794      F1798   1.382       .  S
C1794      F1799   1.384       .  S
C1794      F1800   1.383       .  S
C1801      C1802   1.416       .  A
C1801      C1806   1.407       .  A
C1801      H1808   1.082       .  S
C1802      C1803   1.427       .  A
C1803      C1804   1.412       .  A
C1803      C1810   1.520       .  S
C1804      C1805   1.403       .  A
C1804      H1809   1.083       .  S
C1805      C1806   1.411       .  A
C1806      C1807   1.519   1_556  S
C1807      F1811   1.385   1_554  S
C1810      F1814   1.382       .  S
C1810      F1815   1.384       .  S
C1810      F1816   1.385       .  S
C1817      C1818   1.413       .  A
C1817      C1822   1.408       .  A
C1817      H1824   1.082       .  S
C1818      C1819   1.428       .  A
C1819      C1820   1.414       .  A
C1819      C1826   1.520       .  S
C1820      C1821   1.404       .  A
C1820      H1825   1.083       .  S
C1821      C1822   1.410       .  A
C1822      C1823   1.512       .  S
C1823      F1827   1.385   1_545  S
C1823      F1828   1.379       .  S
C1823      F1829   1.383       .  S
C1826      F1830   1.383       .  S
C1826      F1831   1.383       .  S
C1826      F1832   1.385       .  S
C1833      C1834   1.407       .  A
C1833      C1838   1.410       .  A
C1833      H1840   1.083       .  S
C1834      C1835   1.415       .  A
C1835      C1836   1.396       .  A
C1835      C1842   1.513       .  S
C1836      C1837   1.397   1_455  A
C1836      H1841   1.085   1_455  S
C1837      C1838   1.414   1_655  A
C1838      C1839   1.514       .  S
C1839      F1843   1.385       .  S
C1839      F1844   1.379       .  S
C1839      F1845   1.383       .  S
C1842      F1846   1.381       .  S
C1842      F1847   1.383       .  S
C1842      F1848   1.383       .  S
C1849      C1850   1.415       .  A
C1849      C1854   1.432       .  A
C1849      H1856   1.077       .  S
C1850      C1851   1.426       .  A
C1851      C1852   1.422       .  A
C1851      C1858   1.519       .  S
C1852      C1853   1.414       .  A
C1852      H1857   1.084       .  S
C1853      C1854   1.426       .  A
C1854      C1855   1.516       .  S
C1855      F1859   1.384       .  S
C1855      F1860   1.380       .  S
C1855      F1861   1.383       .  S
C1858      F1862   1.383       .  S
C1858      F1863   1.383       .  S
C1858      F1864   1.384       .  S
C1865      C1866   1.404       .  A
C1865      C1870   1.428       .  A
C1865      H1872   1.083       .  S
C1866      C1867   1.459       .  A
C1867      C1868   1.416       .  A
C1867      C1874   1.528       .  S
C1868      C1869   1.388       .  A
C1868      H1873   1.084       .  S
C1869      C1870   1.440       .  A
C1870      C1871   1.520       .  S
C1871      F1875   1.385       .  S
C1871      F1876   1.377       .  S
C1871      F1877   1.383       .  S
C1874      F1878   1.377       .  S
C1874      F1879   1.365       .  S
C1874      F1880   1.387       .  S
C1881      C1882   1.403       .  A
C1881      C1886   1.404       .  A
C1881      H1888   1.084       .  S
C1882      C1883   1.402       .  A
C1883      C1884   1.405       .  A
C1883      C1890   1.514       .  S
C1884      C1885   1.419       .  A
C1884      H1889   1.082       .  S
C1885      C1886   1.422       .  A
C1886      C1887   1.517       .  S
C1887      F1891   1.385       .  S
C1887      F1892   1.379       .  S
C1887      F1893   1.382       .  S
C1890      F1894   1.383       .  S
C1890      F1895   1.383       .  S
C1890      F1896   1.384       .  S
C1897      C1898   1.398       .  A
C1897      C1902   1.401       .  A
C1897      H1904   1.084       .  S
C1898      C1899   1.432       .  A
C1899      C1900   1.406       .  A
C1899      C1906   1.521       .  S
C1900      C1901   1.396       .  A
C1900      H1905   1.084       .  S
C1901      C1902   1.419       .  A
C1902      C1903   1.509       .  S
C1903      F1907   1.384       .  S
C1906      F1910   1.384       .  S
C1906      F1911   1.383       .  S
C1906      F1912   1.385       .  S
C1913      C1914   1.418       .  A
C1913      C1918   1.413       .  A
C1913      H1920   1.080       .  S
C1914      C1915   1.412       .  A
C1915      C1916   1.393       .  A
C1915      C1922   1.522       .  S
C1916      C1917   1.410       .  A
C1916      H1921   1.078       .  S
C1917      C1918   1.408       .  A
C1918      C1919   1.515       .  S
C1919      F1923   1.384       .  S
C1919      F1924   1.383       .  S
C1919      F1925   1.380       .  S
C1922      F1926   1.383       .  S
C1922      F1927   1.384       .  S
C1922      F1928   1.386       .  S
C1929      C1930   1.419       .  A
C1929      C1934   1.436       .  A
C1929      H1936   1.074       .  S
C1930      C1931   1.421       .  A
C1931      C1932   1.419       .  A
C1931      C1938   1.517       .  S
C1932      C1933   1.416       .  A
C1932      H1937   1.083       .  S
C1933      C1934   1.422       .  A
C1934      C1935   1.516       .  S
C1935      F1939   1.382       .  S
C1935      F1940   1.383       .  S
C1935      F1941   1.381       .  S
C1938      F1942   1.380       .  S
C1938      F1943   1.384       .  S
C1938      F1944   1.384       .  S
C1945      C1946   1.431       .  A
C1945      C1950   1.426       .  A
C1945      H1952   1.082       .  S
C1946      C1947   1.417       .  A
C1947      C1948   1.422       .  A
C1947      C1954   1.516       .  S
C1948      C1949   1.420       .  A
C1948      H1953   1.079       .  S
C1949      C1950   1.408       .  A
C1950      C1951   1.514       .  S
C1951      F1955   1.384       .  S
C1951      F1956   1.381       .  S
C1951      F1957   1.384       .  S
C1954      F1958   1.383       .  S
C1954      F1959   1.383       .  S
C1954      F1960   1.384       .  S
C1961      C1962   1.403       .  A
C1961      C1966   1.402       .  A
C1961      H1968   1.084       .  S
C1962      C1963   1.405       .  A
C1963      C1964   1.406       .  A
C1963      C1970   1.514       .  S
C1964      C1965   1.416       .  A
C1964      H1969   1.082       .  S
C1965      C1966   1.424       .  A
C1966      C1967   1.523       .  S
C1967      F1971   1.385       .  S
C1970      F1974   1.383       .  S
C1970      F1975   1.383       .  S
C1970      F1976   1.384       .  S
C1977      C1978   1.403       .  A
C1977      C1982   1.411       .  A
C1977      H1984   1.083       .  S
C1978      C1979   1.408       .  A
C1979      C1980   1.398       .  A
C1979      C1986   1.518       .  S
C1980      C1981   1.414       .  A
C1980      H1985   1.081       .  S
C1981      C1982   1.424       .  A
C1982      C1983   1.517       .  S
C1983      F1987   1.385       .  S
C1983      F1988   1.381       .  S
C1983      F1989   1.383       .  S
C1986      F1990   1.382       .  S
C1986      F1991   1.381       .  S
C1986      F1992   1.384       .  S
C1993      C1994   1.408       .  A
C1993      C1998   1.392       .  A
C1993      H2000   1.081       .  S
C1994      C1995   1.409       .  A
C1995      C1996   1.411       .  A
C1995      C2002   1.515       .  S
C1996      C1997   1.415       .  A
C1996      H2001   1.081       .  S
C1997      C1998   1.413       .  A
C1998      C1999   1.522       .  S
C1999      F2003   1.385       .  S
C1999      F2004   1.384       .  S
C1999      F2005   1.383       .  S
C2002      F2006   1.379       .  S
C2002      F2007   1.383       .  S
C2002      F2008   1.383       .  S
C2009      C2010   1.385       .  A
C2009      C2014   1.391       .  A
C2009      H2016   1.085       .  S
C2010      C2011   1.421       .  A
C2011      C2012   1.408       .  A
C2011      C2018   1.516       .  S
C2012      C2013   1.402       .  A
C2012      H2017   1.085       .  S
C2013      C2014   1.439       .  A
C2014      C2015   1.528       .  S
C2015      F2019   1.386       .  S
C2015      F2020   1.373       .  S
C2015      F2021   1.376       .  S
C2018      F2022   1.383       .  S
C2018      F2023   1.381       .  S
C2018      F2024   1.383       .  S
C2025      C2026   1.407       .  A
C2025      C2030   1.425       .  A
C2025      H2032   1.080       .  S
C2026      C2027   1.427       .  A
C2027      C2028   1.427       .  A
C2027      C2034   1.516       .  S
C2028      C2029   1.410       .  A
C2028      H2033   1.083       .  S
C2029      C2030   1.431       .  A
C2030      C2031   1.515       .  S
C2031      F2035   1.383       .  S
C2031      F2036   1.371       .  S
C2031      F2037   1.382       .  S
C2034      F2038   1.384       .  S
C2034      F2039   1.382       .  S
C2034      F2040   1.384       .  S
C2041      C2042   1.405       .  A
C2041      C2046   1.411       .  A
C2041      H2048   1.082       .  S
C2042      C2043   1.414       .  A
C2043      C2044   1.401       .  A
C2043      C2050   1.513       .  S
C2044      C2045   1.400       .  A
C2044      H2049   1.085       .  S
C2045      C2046   1.417       .  A
C2046      C2047   1.517       .  S
C2047      F2051   1.379       .  S
C2047      F2052   1.382       .  S
C2047      F2053   1.383       .  S
C2050      F2054   1.384       .  S
C2050      F2055   1.382       .  S
C2050      F2056   1.383       .  S
C2057      C2058   1.402       .  A
C2057      C2062   1.407       .  A
C2057      H2064   1.083       .  S
C2058      C2059   1.416       .  A
C2059      C2060   1.394       .  A
C2059      C2066   1.517       .  S
C2060      C2061   1.400       .  A
C2060      H2065   1.085       .  S
C2061      C2062   1.422       .  A
C2062      C2063   1.518       .  S
C2063      F2067   1.385       .  S
C2063      F2068   1.380       .  S
C2063      F2069   1.383       .  S
C2066      F2070   1.383       .  S
C2066      F2071   1.384       .  S
C2066      F2072   1.384       .  S
C2073      C2074   1.420       .  A
C2073      C2078   1.426       .  A
C2073      H2080   1.081       .  S
C2074      C2075   1.413       .  A
C2075      C2076   1.435       .  A
C2075      C2082   1.513       .  S
C2076      C2077   1.429       .  A
C2076      H2081   1.080       .  S
C2077      C2078   1.424       .  A
C2078      C2079   1.519       .  S
C2079      F2083   1.385       .  S
C2079      F2084   1.383       .  S
C2079      F2085   1.383       .  S
C2082      F2086   1.383       .  S
C2082      F2087   1.383       .  S
C2082      F2088   1.379       .  S
C2089      C2090   1.413       .  A
C2089      C2094   1.409       .  A
C2089      H2096   1.083       .  S
C2090      C2091   1.417       .  A
C2091      C2092   1.402       .  A
C2091      C2098   1.519       .  S
C2092      C2093   1.409       .  A
C2092      H2097   1.083       .  S
C2093      C2094   1.414       .  A
C2094      C2095   1.520       .  S
C2095      F2099   1.380       .  S
C2095      F2100   1.375       .  S
C2095      F2101   1.384       .  S
C2098      F2102   1.383       .  S
C2098      F2103   1.380       .  S
C2098      F2104   1.385       .  S
C2105      C2106   1.397       .  A
C2105      C2110   1.407       .  A
C2105      H2112   1.083       .  S
C2106      C2107   1.419       .  A
C2107      C2108   1.405       .  A
C2107      C2114   1.519       .  S
C2108      C2109   1.406       .  A
C2108      H2113   1.084       .  S
C2109      C2110   1.434       .  A
C2110      C2111   1.524       .  S
C2111      F2115   1.385       .  S
C2111      F2117   1.383       .  S
C2114      F2118   1.382       .  S
C2114      F2119   1.383       .  S
C2114      F2120   1.384       .  S
C2121      C2122   1.402       .  A
C2121      C2126   1.409       .  A
C2121      H2128   1.083       .  S
C2122      C2123   1.413       .  A
C2123      C2124   1.407       .  A
C2123      C2130   1.517       .  S
C2124      C2125   1.404       .  A
C2124      H2129   1.081       .  S
C2125      C2126   1.414       .  A
C2126      C2127   1.516       .  S
C2127      F2131   1.384       .  S
C2127      F2132   1.382       .  S
C2127      F2133   1.384       .  S
C2130      F2134   1.383       .  S
C2130      F2135   1.383       .  S
C2130      F2136   1.379       .  S
C2137      C2138   1.426       .  A
C2137      C2142   1.423       .  A
C2138      C2139   1.416       .  A
C2139      C2140   1.423       .  A
C2139      C2146   1.519       .  S
C2140      C2141   1.423       .  A
C2140      H2145   1.078       .  S
C2141      C2142   1.406       .  A
C2143      F2147   1.384       .  S
C2143      F2148   1.382       .  S
C2143      F2149   1.383       .  S
C2146      F2150   1.382       .  S
C2146      F2151   1.384       .  S
C2146      F2152   1.385       .  S
C2153      C2154   1.412       .  A
C2153      C2158   1.429       .  A
C2153      H2160   1.074   1_455  S
C2154      C2155   1.426       .  A
C2155      C2156   1.430       .  A
C2155      C2162   1.518   1_556  S
C2156      C2157   1.416       .  A
C2156      H2161   1.083   1_556  S
C2157      C2158   1.426       .  A
C2158      C2159   1.520       .  S
C2159      F2163   1.381   1_455  S
C2159      F2164   1.383   1_455  S
C2159      F2165   1.373       .  S
C2162      F2166   1.381       .  S
C2162      F2167   1.383       .  S
C2162      F2168   1.385       .  S
C2169      C2170   1.424       .  A
C2169      C2174   1.426       .  A
C2169      H2176   1.082       .  S
C2170      C2171   1.418       .  A
C2171      C2172   1.421       .  A
C2171      C2178   1.518       .  S
C2172      C2173   1.422       .  A
C2172      H2177   1.079       .  S
C2173      C2174   1.408       .  A
C2174      C2175   1.508       .  S
C2175      F2179   1.383       .  S
C2175      F2180   1.384       .  S
C2175      F2181   1.382       .  S
C2178      F2182   1.383       .  S
C2178      F2183   1.383       .  S
C2178      F2184   1.385       .  S
C2185      C2186   1.411       .  A
C2185      C2190   1.424       .  A
C2185      H2192   1.074   1_455  S
C2186      C2187   1.426       .  A
C2187      C2188   1.425       .  A
C2187      C2194   1.516       .  S
C2188      C2189   1.414       .  A
C2188      H2193   1.084       .  S
C2189      C2190   1.423       .  A
C2190      C2191   1.519       .  S
C2191      F2195   1.383       .  S
C2191      F2196   1.383   1_455  S
C2191      F2197   1.377       .  S
C2194      F2198   1.383       .  S
C2194      F2199   1.383       .  S
C2194      F2200   1.384       .  S
C2201      C2202   1.411       .  A
C2201      C2206   1.404       .  A
C2201      H2208   1.083       .  S
C2202      C2203   1.417       .  A
C2203      C2204   1.405       .  A
C2203      C2210   1.519       .  S
C2204      C2205   1.407       .  A
C2204      H2209   1.083       .  S
C2205      C2206   1.413       .  A
C2206      C2207   1.516       .  S
C2207      F2211   1.372       .  S
C2207      F2212   1.380       .  S
C2207      F2213   1.385       .  S
C2210      F2214   1.383       .  S
C2210      F2215   1.384       .  S
C2210      F2216   1.385       .  S
C2217      C2218   1.415       .  A
C2217      C2222   1.398       .  A
C2217      H2224   1.081       .  S
C2218      C2219   1.424       .  A
C2219      C2220   1.410       .  A
C2219      C2226   1.520       .  S
C2220      C2221   1.405       .  A
C2220      H2225   1.083       .  S
C2221      C2222   1.407       .  A
C2222      C2223   1.517       .  S
C2223      F2227   1.385       .  S
C2223      F2228   1.382       .  S
C2223      F2229   1.380       .  S
C2226      F2230   1.383       .  S
C2226      F2231   1.382       .  S
C2226      F2232   1.385       .  S
C2233      C2234   1.415       .  A
C2233      C2238   1.422       .  A
C2233      H2240   1.084       .  S
C2234      C2235   1.423       .  A
C2235      C2236   1.421       .  A
C2235      C2242   1.518       .  S
C2236      C2237   1.409       .  A
C2236      H2241   1.074       .  S
C2237      C2238   1.423       .  A
C2238      C2239   1.517       .  S
C2239      F2243   1.384       .  S
C2239      F2244   1.383       .  S
C2239      F2245   1.383       .  S
C2242      F2246   1.382       .  S
C2242      F2247   1.376       .  S
C2242      F2248   1.383       .  S
C2249      C2250   1.424       .  A
C2249      C2254   1.430       .  A
C2249      H2256   1.080       .  S
C2250      C2251   1.413       .  A
C2251      C2252   1.431       .  A
C2251      C2258   1.510       .  S
C2252      C2253   1.425       .  A
C2252      H2257   1.082       .  S
C2253      C2254   1.419       .  A
C2254      C2255   1.516       .  S
C2255      F2259   1.384       .  S
C2255      F2260   1.384       .  S
C2255      F2261   1.382       .  S
C2258      F2262   1.382       .  S
C2258      F2263   1.384       .  S
C2258      F2264   1.384       .  S
C2265      C2266   1.408       .  A
C2265      C2270   1.416       .  A
C2265      H2272   1.081       .  S
C2266      C2267   1.413       .  A
C2267      C2268   1.401       .  A
C2267      C2274   1.515       .  S
C2268      C2269   1.399       .  A
C2268      H2273   1.077       .  S
C2269      C2270   1.416       .  A
C2270      C2271   1.514       .  S
C2271      F2275   1.378       .  S
C2271      F2276   1.383       .  S
C2271      F2277   1.383       .  S
C2274      F2278   1.381       .  S
C2274      F2279   1.384       .  S
C2274      F2280   1.384       .  S
C2281      C2282   1.423       .  A
C2281      C2286   1.416       .  A
C2281      H2288   1.083       .  S
C2282      C2283   1.412       .  A
C2283      C2284   1.427       .  A
C2283      C2290   1.513       .  S
C2284      C2285   1.422       .  A
C2285      C2286   1.412       .  A
C2286      C2287   1.518       .  S
C2287      F2291   1.385       .  S
C2287      F2292   1.382       .  S
C2287      F2293   1.383       .  S
C2290      F2295   1.382       .  S
C2297      C2298   1.400       .  A
C2297      C2302   1.396       .  A
C2297      H2304   1.085       .  S
C2299      C2300   1.414       .  A
C2299      C2306   1.520       .  S
C2300      C2301   1.404       .  A
C2300      H2305   1.083       .  S
C2302      C2303   1.516       .  S
C2303      F2307   1.384       .  S
C2303      F2308   1.383       .  S
C2303      F2309   1.384       .  S
C2306      F2310   1.379   1_556  S
C2306      F2311   1.380       .  S
C2306      F2312   1.385       .  S
C2313      C2314   1.411       .  A
C2313      C2318   1.424       .  A
C2313      H2320   1.076       .  S
C2314      C2315   1.419       .  A
C2315      C2316   1.416       .  A
C2315      C2322   1.516   1_556  S
C2316      C2317   1.411       .  A
C2316      H2321   1.084       .  S
C2317      C2318   1.424       .  A
C2318      C2319   1.518       .  S
C2319      F2323   1.383       .  S
C2319      F2324   1.383       .  S
C2319      F2325   1.377       .  S
C2322      F2326   1.382       .  S
C2322      F2327   1.384       .  S
C2322      F2328   1.384       .  S
C2329      C2330   1.408       .  A
C2329      C2334   1.402       .  A
C2329      H2336   1.082       .  S
C2330      C2331   1.417       .  A
C2331      C2332   1.405       .  A
C2331      C2338   1.518       .  S
C2332      C2333   1.409       .  A
C2332      H2337   1.083       .  S
C2333      C2334   1.414       .  A
C2334      C2335   1.517       .  S
C2335      F2339   1.385       .  S
C2335      F2340   1.383       .  S
C2335      F2341   1.380       .  S
C2338      F2342   1.383       .  S
C2338      F2343   1.380       .  S
C2338      F2344   1.385       .  S
C2345      C2346   1.403       .  A
C2345      C2350   1.411       .  A
C2345      H2352   1.083       .  S
C2346      C2347   1.406       .  A
C2347      C2348   1.398       .  A
C2347      C2354   1.515       .  S
C2348      C2349   1.413       .  A
C2348      H2353   1.081       .  S
C2349      C2350   1.426       .  A
C2350      C2351   1.521       .  S
C2351      F2355   1.385       .  S
C2351      F2356   1.384       .  S
C2351      F2357   1.383       .  S
C2354      F2358   1.383       .  S
C2354      F2359   1.378       .  S
C2354      F2360   1.385       .  S
C2361      C2362   1.418       .  A
C2361      C2366   1.431       .  A
C2361      H2368   1.082       .  S
C2362      C2363   1.429       .  A
C2363      C2364   1.431       .  A
C2363      C2370   1.518       .  S
C2364      C2365   1.412       .  A
C2364      H2369   1.075       .  S
C2365      C2366   1.424       .  A
C2366      C2367   1.518       .  S
C2367      F2371   1.384       .  S
C2367      F2372   1.381       .  S
C2367      F2373   1.384       .  S
C2370      F2374   1.382       .  S
C2370      F2375   1.378       .  S
C2370      F2376   1.385       .  S
C2377      C2378   1.393       .  A
C2377      C2382   1.392       .  A
C2377      H2384   1.085       .  S
C2378      C2379   1.424       .  A
C2379      C2380   1.413       .  A
C2379      C2386   1.518       .  S
C2380      C2381   1.405       .  A
C2380      H2385   1.083       .  S
C2381      C2382   1.416       .  A
C2382      C2383   1.509       .  S
C2383      F2387   1.382       .  S
C2383      F2388   1.383       .  S
C2383      F2389   1.381       .  S
C2386      F2390   1.385       .  S
C2386      F2391   1.382       .  S
C2386      F2392   1.378       .  S
C2393      C2394   1.409       .  A
C2393      C2398   1.424       .  A
C2393      H2400   1.077       .  S
C2394      C2395   1.429       .  A
C2395      C2396   1.425       .  A
C2395      C2402   1.521       .  S
C2396      C2397   1.413       .  A
C2396      H2401   1.083       .  S
C2397      C2398   1.428       .  A
C2398      C2399   1.518       .  S
C2399      F2403   1.382   1_565  S
C2399      F2404   1.382       .  S
C2399      F2405   1.376       .  S
C2402      F2406   1.384       .  S
C2402      F2407   1.382       .  S
C2402      F2408   1.385       .  S
C2409      C2410   1.402       .  A
C2409      C2414   1.399       .  A
C2409      H2416   1.082       .  S
C2410      C2411   1.411       .  A
C2411      C2412   1.396       .  A
C2411      C2418   1.511       .  S
C2412      C2413   1.398       .  A
C2412      H2417   1.084       .  S
C2413      C2414   1.410       .  A
C2414      C2415   1.518       .  S
C2415      F2419   1.380       .  S
C2415      F2420   1.382       .  S
C2415      F2421   1.384       .  S
C2418      F2422   1.383       .  S
C2418      F2423   1.381       .  S
C2418      F2424   1.384       .  S
C2425      C2426   1.429       .  A
C2425      C2430   1.422       .  A
C2425      H2432   1.081       .  S
C2426      C2427   1.422       .  A
C2427      C2428   1.432       .  A
C2428      C2429   1.419       .  A
C2429      C2430   1.409       .  A
C2430      C2431   1.517       .  S
C2431      F2435   1.385       .  S
C2431      F2436   1.384       .  S
C2431      F2437   1.383       .  S
C2434      F2438   1.374       .  S
C2434      F2440   1.384   1_554  S
C2441      C2442   1.402       .  A
C2441      C2446   1.398       .  A
C2441      H2448   1.084       .  S
C2442      C2443   1.413       .  A
C2444      C2445   1.410       .  A
C2444      H2449   1.082       .  S
C2446      C2447   1.514       .  S
C2447      F2451   1.385       .  S
C2447      F2452   1.382       .  S
C2450      F2455   1.377       .  S
C2450      F2456   1.384       .  S
C2457      C2458   1.425       .  A
C2457      C2462   1.417       .  A
C2457      H2464   1.083   1_556  S
C2458      C2459   1.417       .  A
C2459      C2460   1.425       .  A
C2459      C2466   1.515       .  S
C2460      C2461   1.418       .  A
C2460      H2465   1.080       .  S
C2461      C2462   1.413       .  A
C2462      C2463   1.517       .  S
C2463      F2467   1.383   1_556  S
C2463      F2468   1.381       .  S
C2463      F2469   1.384   1_565  S
C2466      F2470   1.384       .  S
C2466      F2471   1.382       .  S
C2466      F2472   1.384       .  S
C2473      C2474   1.402       .  A
C2473      C2478   1.409       .  A
C2473      H2480   1.082       .  S
C2474      C2475   1.408       .  A
C2475      C2476   1.401       .  A
C2475      C2482   1.518       .  S
C2476      C2477   1.414       .  A
C2476      H2481   1.082       .  S
C2477      C2478   1.425       .  A
C2478      C2479   1.520       .  S
C2479      F2483   1.383   1_545  S
C2479      F2484   1.383       .  S
C2479      F2485   1.385   1_545  S
C2482      F2486   1.380       .  S
C2482      F2487   1.382       .  S
C2482      F2488   1.385       .  S
C2489      C2490   1.404       .  A
C2489      C2494   1.399       .  A
C2489      H2496   1.083       .  S
C2490      C2491   1.418       .  A
C2491      C2492   1.411       .  A
C2491      C2498   1.517       .  S
C2492      C2493   1.408       .  A
C2492      H2497   1.083       .  S
C2493      C2494   1.419       .  A
C2494      C2495   1.519       .  S
C2495      F2499   1.385       .  S
C2495      F2500   1.379       .  S
C2495      F2501   1.382       .  S
C2498      F2502   1.379       .  S
C2498      F2503   1.383       .  S
C2498      F2504   1.385       .  S
C2505      C2510   1.402       .  A
C2505      H2512   1.076       .  S
C2506      C2507   1.404       .  A
C2507      C2508   1.392       .  A
C2507      C2514   1.521       .  S
C2508      H2513   1.081       .  S
C2509      C2510   1.405       .  A
C2510      C2511   1.515       .  S
C2511      F2515   1.383       .  S
C2511      F2516   1.385       .  S
C2511      F2517   1.381       .  S
C2514      F2518   1.383       .  S
C2514      F2519   1.381       .  S
C2514      F2520   1.385       .  S
