geometry optimzed in LAMMPS
_audit_creation_date              2020-12-01 
_audit_creation_method            'lammps2cif' 
_symmetry_space_group_name_H-M    'P1' 
_symmetry_Int_Tables_number       1 
_symmetry_cell_setting            triclinic 
loop_ 
_symmetry_equiv_pos_as_xyz 
  x,y,z 
_cell_length_a                    83.67616902 
_cell_length_b                    83.86908112550695 
_cell_length_c                    30.68415272856429 
_cell_angle_alpha                 90.06152580163433 
_cell_angle_beta                  89.88307907401459 
_cell_angle_gamma                 120.13414191619727 
loop_ 
_atom_site_label 
_atom_site_type_symbol 
_atom_site_fract_x 
_atom_site_fract_y 
_atom_site_fract_z 
_atom_site_charge 
Fe1        Fe  0.12083469  0.23750579  0.57116799     1.65800
Fe2        Fe  0.15670786  0.23147630  0.54197783     1.73200
Fe3        Fe  0.12383432  0.20194227  0.61248202     1.54400
O4          O  0.11342351  0.21261709  0.65802461    -0.81300
O5          O  0.14791955  0.20520560  0.51816651    -0.79600
O6          O  0.12161551  0.24105115  0.63775061    -0.83800
O7          O  0.09500799  0.21381116  0.57497670    -0.78600
O8          O  0.14809996  0.21325031  0.64682207    -0.80400
O9          O  0.14581295  0.23635381  0.48590161    -0.83100
C10         C  0.08860829  0.19646416  0.57454054     0.97600
C11         C  0.11563787  0.22843103  0.66628640     1.05100
O12         O  0.13389507  0.22368636  0.57487556    -1.12100
O13         O  0.16852368  0.25883146  0.56150123    -0.74600
O14         O  0.14441493  0.26308606  0.56666449    -0.78000
O15         O  0.09878982  0.18941080  0.58038350    -0.78700
C16         C  0.16168802  0.26926964  0.56572641     0.96500
O17         O  0.11938866  0.23515891  0.50454256    -0.76700
O18         O  0.16963440  0.22689635  0.59480183    -0.81900
C19         C  0.14114373  0.18993082  0.53813834     0.99100
C20         C  0.16469820  0.22072087  0.63343644     1.05100
O21         O  0.13284447  0.18755687  0.57425607    -0.77500
C22         C  0.13084075  0.23601898  0.47607097     1.03400
Fe23       Fe  0.22536232  0.44074346  0.61349401     1.65800
Fe24       Fe  0.26733785  0.44497347  0.63202079     1.73200
Fe25       Fe  0.26442800  0.47796497  0.57557967     1.54400
O26         O  0.24820927  0.46630803  0.52166651    -0.81300
O27         O  0.28975402  0.47109159  0.64437066    -0.79600
O28         O  0.22122417  0.44416861  0.54810657    -0.83800
O29         O  0.22369614  0.46348942  0.63156938    -0.78600
O30         O  0.28398736  0.47235302  0.54881184    -0.80400
O31         O  0.25716818  0.44514311  0.69287924    -0.83100
C32         C  0.23214915  0.48017189  0.61954358     0.97600
C33         C  0.23145693  0.45379553  0.51654250     1.05100
O34         O  0.25220583  0.45446464  0.60680983    -1.12100
O35         O  0.24778984  0.41712996  0.62430070    -0.74600
O36         O  0.22293644  0.41600860  0.59608146    -0.78000
O37         O  0.24687651  0.48704559  0.59716832    -0.78700
C38         C  0.23177489  0.40817180  0.60770893     0.96500
O39         O  0.22746764  0.43627460  0.67956118    -0.76700
O40         O  0.27842789  0.44478956  0.57208824    -0.81900
C41         C  0.29255851  0.48745769  0.64504397     0.99100
C42         C  0.28665518  0.45867492  0.54709043     1.05100
O43         O  0.28133454  0.49145442  0.62755711    -0.77500
C44         C  0.24089588  0.44038498  0.70553035     1.03400
Fe45       Fe  0.53499591  0.44359228  0.27602741     1.65800
Fe46       Fe  0.49686763  0.40100470  0.29341658     1.73200
Fe47       Fe  0.53358534  0.40494352  0.23490536     1.54400
O48         O  0.54183266  0.42435333  0.18562349    -0.81300
O49         O  0.50193702  0.38063708  0.31395569    -0.79600
O50         O  0.54020132  0.44856474  0.21028665    -0.83800
O51         O  0.56040808  0.44574260  0.28598894    -0.78600
O52         O  0.50993346  0.38854220  0.20011645    -0.80400
O53         O  0.50573536  0.41336656  0.35393144    -0.83100
C54         C  0.56750218  0.43552792  0.28268032     0.97600
C55         C  0.54304793  0.43994187  0.18004893     1.05100
O56         O  0.52175753  0.41647965  0.26803661    -1.12100
O57         O  0.48739731  0.41859462  0.27671861    -0.74600
O58         O  0.51200151  0.44630797  0.26779793    -0.78000
O59         O  0.55869754  0.41947622  0.26652241    -0.78700
C60         C  0.49466924  0.43569090  0.26942837     0.96500
O61         O  0.53093375  0.44092592  0.34249468    -0.76700
O62         O  0.48571344  0.38671595  0.23572420    -0.81900
C63         C  0.51309514  0.37508193  0.30481192     0.99100
C64         C  0.49270329  0.38232403  0.20434292     1.05100
O65         O  0.52645133  0.38363866  0.27850019    -0.77500
C66         C  0.51917246  0.42851423  0.36759987     1.03400
Fe67       Fe  0.43630880  0.54704711  0.23792613     1.65800
Fe68       Fe  0.39372671  0.51014489  0.21538428     1.73200
Fe69       Fe  0.39755716  0.54688373  0.27324015     1.54400
O70         O  0.41700254  0.55622082  0.32313266    -0.81300
O71         O  0.37532706  0.51674059  0.18862466    -0.79600
O72         O  0.43971797  0.55096085  0.30429490    -0.83800
O73         O  0.43959047  0.57297855  0.22947489    -0.78600
O74         O  0.38138394  0.52373387  0.30992731    -0.80400
O75         O  0.40833324  0.51829418  0.15740975    -0.83100
C76         C  0.42933591  0.58008427  0.22736304     0.97600
C77         C  0.43157759  0.55569182  0.33196550     1.05100
O78         O  0.40912207  0.53461347  0.24222461    -1.12100
O79         O  0.40939861  0.49944563  0.23836852    -0.74600
O80         O  0.43775387  0.52328669  0.24549381    -0.78000
O81         O  0.41243413  0.57126499  0.23857802    -0.78700
C82         C  0.42641883  0.50609479  0.24581788     0.96500
O83         O  0.43498365  0.54425297  0.17114582    -0.76700
O84         O  0.37737307  0.49955687  0.27023306    -0.81900
C85         C  0.36854702  0.52658667  0.20031830     0.99100
C86         C  0.37412192  0.50650378  0.30349759     1.05100
O87         O  0.37578093  0.53872917  0.22994345    -0.77500
C88         C  0.42343610  0.53217033  0.14520404     1.03400
Fe89       Fe  0.22173664  0.12849355  0.94493417     1.65800
Fe90       Fe  0.21422805  0.16461238  0.96077437     1.73200
Fe91       Fe  0.18333104  0.12711577  0.90249076     1.54400
O92         O  0.19668611  0.12258442  0.85139854    -0.81300
O93         O  0.18753700  0.15838413  0.97537181    -0.79600
O94         O  0.22154572  0.12297767  0.87918396    -0.83800
O95         O  0.19979881  0.10264415  0.95663408    -0.78600
O96         O  0.18831922  0.15095367  0.87131696    -0.80400
O97         O  0.21612180  0.15563857  0.02228933    -0.83100
C98         C  0.18279908  0.09385186  0.94730822     0.97600
C99         C  0.21127507  0.12156602  0.84718017     1.05100
O100        O  0.20644640  0.14002426  0.93614083    -1.12100
O101        O  0.24229040  0.17553014  0.94925561    -0.74600
O102        O  0.24636977  0.15203590  0.93384961    -0.78000
O103        O  0.17484829  0.10131310  0.92809492    -0.78700
C104        C  0.25251908  0.16909789  0.93798223     0.96500
O105        O  0.22321864  0.13341943  0.01147765    -0.76700
O106        O  0.21258091  0.17518024  0.90139816    -0.81900
C107        C  0.17117685  0.14491955  0.97154593     0.99100
C108        C  0.20025647  0.16802751  0.87211823     1.05100
O109        O  0.16774691  0.13061307  0.95004422    -0.77500
C110        C  0.22001260  0.14370295  0.03626943     1.03400
Fe111      Fe  0.42438655  0.22966053  0.89767915     1.65800
Fe112      Fe  0.42776254  0.27114928  0.87768300     1.73200
Fe113      Fe  0.46231102  0.26891152  0.93212135     1.54400
O114        O  0.45293489  0.24935661  0.98142723    -0.81300
O115        O  0.45227204  0.28991929  0.84850522    -0.79600
O116        O  0.42459699  0.22665836  0.96438199    -0.83800
O117        O  0.44756548  0.22707962  0.89091335    -0.78600
O118        O  0.45508120  0.28457256  0.96992868    -0.80400
O119        O  0.42061940  0.25610365  0.82002199    -0.83100
C120        C  0.46488562  0.23772148  0.88850176     0.97600
C121        C  0.43781670  0.23491652  0.99131709     1.05100
O122        O  0.43816538  0.25668326  0.90260929    -1.12100
O123        O  0.40172077  0.25469389  0.90321354    -0.74600
O124        O  0.39836117  0.22675696  0.90273499    -0.78000
O125        O  0.47257624  0.25477018  0.89737285    -0.78700
C126        C  0.39173194  0.23735931  0.90611870     0.96500
O127        O  0.42390157  0.23160724  0.83100108    -0.76700
O128        O  0.43406955  0.28793168  0.93231923    -0.81900
C129        C  0.46920014  0.29710985  0.85835006     0.99100
C130        C  0.44483851  0.29156777  0.96466472     1.05100
O131        O  0.47472851  0.29046109  0.88798756    -0.77500
C132        C  0.42142949  0.24223470  0.80590289     1.03400
Fe133      Fe  0.53229840  0.10481813  0.77864743     1.65800
Fe134      Fe  0.53337735  0.14357899  0.74042503     1.73200
Fe135      Fe  0.49517804  0.11069535  0.79286094     1.54400
O136        O  0.48532519  0.08287614  0.78125188    -0.81300
O137        O  0.52847984  0.15740310  0.78970399    -0.79600
O138        O  0.50944141  0.08012664  0.76448780    -0.83800
O139        O  0.52594383  0.10187415  0.84417082    -0.78600
O140        O  0.48586208  0.11204231  0.73207564    -0.80400
O141        O  0.55923837  0.15215990  0.76763834    -0.83100
C142        C  0.51528244  0.10465900  0.86871198     0.97600
C143        C  0.49225855  0.07321365  0.76908095     1.05100
O144        O  0.52039192  0.11968554  0.77073963    -1.12100
O145        O  0.53944515  0.13201007  0.68852882    -0.74600
O146        O  0.53917675  0.10674883  0.71345374    -0.78000
O147        O  0.50346650  0.10874833  0.85474417    -0.78700
C148        C  0.54104131  0.11786800  0.68312237     0.96500
O149        O  0.55761012  0.12673817  0.79384500    -0.76700
O150        O  0.50948806  0.13836851  0.70734150    -0.81900
C151        C  0.51326329  0.15338460  0.80770407     0.99100
C152        C  0.49290384  0.12504145  0.70449611     1.05100
O153        O  0.49977832  0.13692218  0.80772363    -0.77500
C154        C  0.56654762  0.14381128  0.78589557     1.03400
Fe155      Fe  0.43496407  0.90280546  0.72435896     1.65800
Fe156      Fe  0.39891509  0.86721219  0.77548572     1.73200
Fe157      Fe  0.39199739  0.89701482  0.71436378     1.54400
O158        O  0.40839320  0.92352901  0.73762881    -0.81300
O159        O  0.37468618  0.85267529  0.74105742    -0.79600
O160        O  0.43653329  0.92819746  0.72507064    -0.83800
O161        O  0.42958942  0.90034094  0.65871996    -0.78600
O162        O  0.37643099  0.89089077  0.77057496    -0.80400
O163        O  0.41036376  0.85514177  0.73748345    -0.83100
C164        C  0.41861459  0.90352941  0.63688864     0.97600
C165        C  0.42573016  0.93420478  0.73438641     1.05100
O166        O  0.40855230  0.88896568  0.73800727    -1.12100
O167        O  0.42171307  0.87877664  0.81590468    -0.74600
O168        O  0.44221269  0.90637207  0.78942501    -0.78000
O169        O  0.40528438  0.90435229  0.65444508    -0.78700
C170        C  0.43632642  0.89436431  0.81950443     0.96500
O171        O  0.43754550  0.87950960  0.72105862    -0.76700
O172        O  0.38636171  0.87718684  0.81658999    -0.81900
C173        C  0.36694234  0.85541232  0.70876499     0.99100
C174        C  0.37630053  0.88412770  0.80761121     1.05100
O175        O  0.37370498  0.87099742  0.68989698    -0.77500
C176        C  0.42677331  0.86217798  0.72321438     1.03400
Fe177      Fe  0.22821426  0.11010430  0.44470603     1.65800
Fe178      Fe  0.18937429  0.07194795  0.40804690     1.73200
Fe179      Fe  0.22160269  0.06705158  0.46374587     1.54400
O180        O  0.24956194  0.08518714  0.45347190    -0.81300
O181        O  0.17509634  0.05377336  0.45797192    -0.79600
O182        O  0.25232747  0.11098803  0.42657702    -0.83800
O183        O  0.23274169  0.10789623  0.51035558    -0.78600
O184        O  0.22043174  0.05494369  0.40427173    -0.80400
O185        O  0.18116549  0.08955699  0.43488019    -0.83100
C186        C  0.22826370  0.09457019  0.53670650     0.97600
C187        C  0.25912825  0.10098112  0.43636692     1.05100
O188        O  0.21312628  0.08313543  0.43856616    -1.12100
O189        O  0.20104148  0.08900342  0.35480789    -0.74600
O190        O  0.22503882  0.11499353  0.37994729    -0.78000
O191        O  0.22281552  0.07811621  0.52447824    -0.78700
C192        C  0.21432752  0.10536972  0.34926006     0.96500
O193        O  0.20622448  0.11319644  0.46334839    -0.76700
O194        O  0.19444335  0.05259041  0.37773319    -0.81900
C195        C  0.17879047  0.04258573  0.47679997     0.99100
C196        C  0.20707713  0.04828029  0.37739562     1.05100
O197        O  0.19521972  0.04553711  0.47812168    -0.77500
C198        C  0.18900118  0.10465926  0.45590366     1.03400
Fe199      Fe  0.43101748  0.21187751  0.39533014     1.65800
Fe200      Fe  0.46727747  0.21038571  0.44025833     1.73200
Fe201      Fe  0.43589897  0.17453404  0.37960816     1.54400
O202        O  0.40791904  0.16623927  0.38263225    -0.81300
O203        O  0.48276419  0.20662537  0.39320242    -0.79600
O204        O  0.40618907  0.18925683  0.41262150    -0.83800
O205        O  0.42732695  0.20457684  0.32961827    -0.78600
O206        O  0.43380238  0.16324486  0.44055324    -0.80400
O207        O  0.47709257  0.23699704  0.41633964    -0.83100
C208        C  0.43185084  0.19544012  0.30412399     0.97600
C209        C  0.39854084  0.17273150  0.39956801     1.05100
O210        O  0.44482975  0.19910341  0.40481945    -1.12100
O211        O  0.45400127  0.21493729  0.49073594    -0.74600
O212        O  0.43333345  0.22056089  0.45985179    -0.78000
O213        O  0.43738122  0.18472123  0.31787399    -0.78700
C214        C  0.44183824  0.21967169  0.49328467     0.96500
O215        O  0.45418453  0.23611687  0.37756664    -0.76700
O216        O  0.46009498  0.18532211  0.46974525    -0.81900
C217        C  0.47887080  0.19149661  0.37522006     0.99100
C218        C  0.44600335  0.16911833  0.47028059     1.05100
O219        O  0.46232376  0.17825222  0.37182199    -0.77500
C220        C  0.47067076  0.24454657  0.39143490     1.03400
Fe221      Fe  0.12474994  0.89772402  0.06309649     1.65800
Fe222      Fe  0.12205473  0.93485191  0.09897961     1.73200
Fe223      Fe  0.16025575  0.94158516  0.04403010     1.54400
O224        O  0.17162616  0.92523753  0.05884234    -0.81300
O225        O  0.12481859  0.95176483  0.04754591    -0.79600
O226        O  0.14864611  0.89781473  0.07794378    -0.83800
O227        O  0.13046155  0.89995403  0.99662076    -0.78600
O228        O  0.17043739  0.95513968  0.10242524    -0.80400
O229        O  0.09638529  0.91600702  0.07422416    -0.83100
C230        C  0.14007815  0.91328680  0.97073107     0.97600
C231        C  0.16568339  0.90896605  0.07258037     1.05100
O232        O  0.13568929  0.92461800  0.06896430    -1.12100
O233        O  0.11778667  0.91861121  0.15298306    -0.74600
O234        O  0.11783963  0.89341859  0.12891683    -0.78000
O235        O  0.15155442  0.92954027  0.98343637    -0.78700
C236        C  0.11596409  0.90279371  0.15918719     0.96500
O237        O  0.09890415  0.89285353  0.04736615    -0.76700
O238        O  0.14577182  0.95556137  0.12851194    -0.81900
C239        C  0.13921743  0.96293020  0.02673772     0.99100
C240        C  0.16300361  0.96113722  0.12895435     1.05100
O241        O  0.15343569  0.96120090  0.02591308    -0.77500
C242        C  0.08955137  0.90057074  0.05508086     1.03400
Fe243      Fe  0.22087935  0.79705991  0.11690374     1.65800
Fe244      Fe  0.25699125  0.79335574  0.07740489     1.73200
Fe245      Fe  0.26529827  0.83205008  0.13112209     1.54400
O246        O  0.24854897  0.84326298  0.12111876    -0.81300
O247        O  0.27550865  0.79670286  0.12634018    -0.79600
O248        O  0.22131278  0.82094694  0.09815476    -0.83800
O249        O  0.22454923  0.80480311  0.18221351    -0.78600
O250        O  0.27712476  0.84161092  0.07070606    -0.80400
O251        O  0.23842372  0.76821696  0.10456408    -0.83100
C252        C  0.23849411  0.81351514  0.20710756     0.97600
C253        C  0.23248647  0.83777872  0.10643257     1.05100
O254        O  0.24760156  0.80744076  0.10827523    -1.12100
O255        O  0.23949218  0.78854110  0.02556120    -0.74600
O256        O  0.21446964  0.78768093  0.05290778    -0.78000
O257        O  0.25488457  0.82367681  0.19305742    -0.78700
C258        C  0.22305289  0.78540980  0.02137225     0.96500
O259        O  0.21646784  0.77168063  0.13651022    -0.76700
O260        O  0.27678833  0.81653034  0.04534640    -0.81900
C261        C  0.28734438  0.81152159  0.14473691     0.99100
C262        C  0.28251633  0.83371927  0.04386410     1.05100
O263        O  0.28551376  0.82561787  0.14481769    -0.77500
C264        C  0.22361344  0.76196217  0.12640752     1.03400
Fe265      Fe  0.19742030  0.77446507  0.61435413     1.65800
Fe266      Fe  0.16417816  0.73040701  0.63221712     1.73200
Fe267      Fe  0.20244385  0.73929070  0.57655798     1.54400
O268        O  0.20437276  0.75469117  0.52248486    -0.81300
O269        O  0.17148346  0.71043288  0.64359403    -0.79600
O270        O  0.20725827  0.78056155  0.55062626    -0.83800
O271        O  0.22262368  0.77943596  0.63720255    -0.78600
O272        O  0.17893164  0.71747499  0.54989420    -0.80400
O273        O  0.17358403  0.74106931  0.69370115    -0.83100
C274        C  0.23342287  0.77399790  0.62374661     0.97600
C275        C  0.20753842  0.77109834  0.51846765     1.05100
O276        O  0.18816366  0.74817259  0.60782340    -1.12100
O277        O  0.15234543  0.74698583  0.62505613    -0.74600
O278        O  0.17337695  0.77235352  0.59155499    -0.78000
O279        O  0.22790187  0.76008603  0.59886461    -0.78700
C280        C  0.15706922  0.76191050  0.60491376     0.96500
O281        O  0.18849164  0.77117681  0.67907869    -0.76700
O282        O  0.15458343  0.71942001  0.57080674    -0.81900
C283        C  0.18628479  0.70969214  0.64314942     0.99100
C284        C  0.16217960  0.71326134  0.54502461     1.05100
O285        O  0.20125006  0.72267143  0.62756599    -0.77500
C286        C  0.18195877  0.75783444  0.70620717     1.03400
Fe287      Fe  0.10180321  0.87589994  0.56038229     1.65800
Fe288      Fe  0.05855503  0.83865275  0.54832449     1.73200
Fe289      Fe  0.06432159  0.87571039  0.60582456     1.54400
O290        O  0.08319325  0.88154774  0.65533902    -0.81300
O291        O  0.03650907  0.84274723  0.53846653    -0.79600
O292        O  0.10852034  0.88366625  0.62486790    -0.83800
O293        O  0.10405106  0.90091138  0.54516654    -0.78600
O294        O  0.04641579  0.85159880  0.63871316    -0.80400
O295        O  0.06757058  0.84797635  0.48548663    -0.83100
C296        C  0.09543237  0.90919251  0.55565627     0.97600
C297        C  0.09962929  0.88449858  0.65756827     1.05100
O298        O  0.07500080  0.86352808  0.57149460    -1.12100
O299        O  0.07710815  0.82935829  0.55414344    -0.74600
O300        O  0.10384915  0.85297403  0.57476314    -0.78000
O301        O  0.08066663  0.90145697  0.57799402    -0.78700
C302        C  0.09358180  0.83595769  0.56706279     0.96500
O303        O  0.09747285  0.86927047  0.49458653    -0.76700
O304        O  0.04868627  0.82837056  0.61010974    -0.81900
C305        C  0.03313809  0.85583950  0.54119834     0.99100
C306        C  0.04294023  0.83498183  0.63960917     1.05100
O307        O  0.04422572  0.87090183  0.55991229    -0.77500
C308        C  0.08349036  0.85950688  0.47050838     1.03400
Fe309      Fe  0.89150144  0.45357941  0.27929800     1.65800
Fe310      Fe  0.88546562  0.49050364  0.29075096     1.73200
Fe311      Fe  0.85490185  0.45321773  0.23045789     1.54400
O312        O  0.86681485  0.44291105  0.18789359    -0.81300
O313        O  0.85939620  0.48347623  0.31298851    -0.79600
O314        O  0.89445739  0.45001058  0.21441799    -0.83800
O315        O  0.86829951  0.42754517  0.28384022    -0.78600
O316        O  0.86398436  0.47570682  0.19053398    -0.80400
O317        O  0.89138350  0.48374275  0.35149500    -0.83100
C318        C  0.85089459  0.42048151  0.28111937     0.97600
C319        C  0.88262965  0.44439943  0.18409965     1.05100
O320        O  0.87722934  0.46579670  0.26698362    -1.12100
O321        O  0.91254587  0.50117289  0.27181035    -0.74600
O322        O  0.91717917  0.47746992  0.27695842    -0.78000
O323        O  0.84341318  0.42934361  0.26681625    -0.78700
C324        C  0.92324535  0.49459948  0.27225141     0.96500
O325        O  0.88964240  0.45652275  0.34497084    -0.76700
O326        O  0.88092423  0.50005550  0.23230515    -0.81900
C327        C  0.84336561  0.47363772  0.29704063     0.99100
C328        C  0.87304136  0.49302196  0.19624720     1.05100
O329        O  0.83991217  0.46214653  0.26649085    -0.77500
C330        C  0.89171215  0.46998720  0.36803850     1.03400
Fe331      Fe  0.09385167  0.56084104  0.22688620     1.65800
Fe332      Fe  0.09981535  0.60382839  0.21402683     1.73200
Fe333      Fe  0.12977899  0.59713210  0.27639140     1.54400
O334        O  0.11786020  0.57472779  0.31814595    -0.81300
O335        O  0.12619698  0.62297909  0.19250283    -0.79600
O336        O  0.09009197  0.55424688  0.29222211    -0.83800
O337        O  0.11704959  0.55803930  0.22543486    -0.78600
O338        O  0.12014061  0.61027898  0.31592986    -0.80400
O339        O  0.09464670  0.59109081  0.15320760    -0.83100
C340        C  0.13443138  0.56854998  0.22774172     0.97600
C341        C  0.10214394  0.56027477  0.32221413     1.05100
O342        O  0.10781058  0.58737506  0.23908100    -1.12100
O343        O  0.07248465  0.58716063  0.23266366    -0.74600
O344        O  0.06821501  0.55891127  0.22636439    -0.78000
O345        O  0.14171058  0.58516639  0.24008532    -0.78700
C346        C  0.06200322  0.56980001  0.23162582     0.96500
O347        O  0.09679850  0.56580203  0.16103312    -0.76700
O348        O  0.10408759  0.61828429  0.27207067    -0.81900
C349        C  0.14197256  0.62912547  0.20997011     0.99100
C350        C  0.11163794  0.61900167  0.30858572     1.05100
O351        O  0.14485510  0.62100084  0.24112072    -0.77500
C352        C  0.09519361  0.57732450  0.13729564     1.03400
Fe353      Fe  0.78631685  0.56329542  0.89135591     1.65800
Fe354      Fe  0.82390903  0.55816550  0.87932520     1.73200
Fe355      Fe  0.78685114  0.52739492  0.94077299     1.54400
O356        O  0.77693270  0.53938470  0.98402876    -0.81300
O357        O  0.81686922  0.53210280  0.85688270    -0.79600
O358        O  0.78255900  0.56635332  0.95625819    -0.83800
O359        O  0.76036244  0.53995848  0.88670624    -0.78600
O360        O  0.80984073  0.53629615  0.97949961    -0.80400
O361        O  0.81688967  0.56391705  0.81867591    -0.83100
C362        C  0.75346993  0.52265021  0.89018232     0.97600
C363        C  0.77754936  0.55479523  0.98712996     1.05100
O364        O  0.79910744  0.54960651  0.90394221    -1.12100
O365        O  0.83431435  0.58522502  0.89898336    -0.74600
O366        O  0.81003051  0.58906851  0.89314975    -0.78000
O367        O  0.76249123  0.51555685  0.90573785    -0.78700
C368        C  0.82724390  0.59551148  0.89830898     0.96500
O369        O  0.78915923  0.56104925  0.82598763    -0.76700
O370        O  0.83396322  0.55358066  0.93677828    -0.81900
C371        C  0.80674904  0.51605257  0.87255895     0.99100
C372        C  0.82714924  0.54520483  0.97247424     1.05100
O373        O  0.79536377  0.51264577  0.90336418    -0.77500
C374        C  0.80260257  0.56330651  0.80248535     1.03400
Fe375      Fe  0.88849133  0.76703408  0.95113307     1.65800
Fe376      Fe  0.93136280  0.77159281  0.96140922     1.73200
Fe377      Fe  0.92621380  0.80348383  0.90440698     1.54400
O378        O  0.90732741  0.79054099  0.85493803    -0.81300
O379        O  0.95346458  0.79775274  0.97318768    -0.79600
O380        O  0.88176812  0.76800214  0.88644006    -0.83800
O381        O  0.88710772  0.79034539  0.96604174    -0.78600
O382        O  0.94396450  0.79718059  0.87180533    -0.80400
O383        O  0.92216413  0.77122250  0.02473764    -0.83100
C384        C  0.89595729  0.80713841  0.95466848     0.97600
C385        C  0.89070900  0.77735230  0.85329389     1.05100
O386        O  0.91526185  0.78065258  0.93899185    -1.12100
O387        O  0.91235149  0.74379028  0.95283124    -0.74600
O388        O  0.88545331  0.74158447  0.93762394    -0.78000
O389        O  0.91041763  0.81359041  0.93147820    -0.78700
C390        C  0.89546320  0.73434855  0.94226978     0.96500
O391        O  0.89288245  0.76489001  0.01706907    -0.76700
O392        O  0.94186734  0.77173147  0.89974714    -0.81900
C393        C  0.95695201  0.81428206  0.96993568     0.99100
C394        C  0.94765759  0.78423053  0.87063165     1.05100
O395        O  0.94609441  0.81835061  0.95059080    -0.77500
C396        C  0.90668898  0.76793600  0.04054463     1.03400
Fe397      Fe  0.86486628  0.76496523  0.44880581     1.65800
Fe398      Fe  0.86617883  0.80415370  0.41339884     1.73200
Fe399      Fe  0.82825667  0.77151383  0.46729317     1.54400
O400        O  0.81799712  0.74343367  0.45767772    -0.81300
O401        O  0.86152096  0.81816010  0.46319736    -0.79600
O402        O  0.84143704  0.74045221  0.43481588    -0.83800
O403        O  0.85923411  0.76215218  0.51556416    -0.78600
O404        O  0.81810631  0.77291983  0.40701959    -0.80400
O405        O  0.89180026  0.81227831  0.44108204    -0.83100
C406        C  0.84953683  0.76588134  0.54135685     0.97600
C407        C  0.82452415  0.73362071  0.44389849     1.05100
O408        O  0.85314832  0.78014116  0.44295054    -1.12100
O409        O  0.87249418  0.79298867  0.36023692    -0.74600
O410        O  0.87166187  0.76724227  0.38280311    -0.78000
O411        O  0.83767397  0.77013837  0.52859226    -0.78700
C412        C  0.87427475  0.77898773  0.35318799     0.96500
O413        O  0.89058720  0.78656574  0.46332049    -0.76700
O414        O  0.84210526  0.79909638  0.38171254    -0.81900
C415        C  0.84638266  0.81423656  0.48154539     0.99100
C416        C  0.82521804  0.78631068  0.38025544     1.05100
O417        O  0.83296498  0.79777505  0.48174159    -0.77500
C418        C  0.89929438  0.80383259  0.45800461     1.03400
Fe419      Fe  0.76827232  0.56467313  0.39258829     1.65800
Fe420      Fe  0.73071503  0.52686454  0.43592415     1.73200
Fe421      Fe  0.72492256  0.55744894  0.37498738     1.54400
O422        O  0.74269746  0.58553109  0.38215930    -0.81300
O423        O  0.71172473  0.51102046  0.38859265    -0.79600
O424        O  0.76954166  0.58943678  0.40513147    -0.83800
O425        O  0.76508881  0.56689531  0.32650206    -0.78600
O426        O  0.71371005  0.55760585  0.43425443    -0.80400
O427        O  0.74842881  0.51813379  0.41264652    -0.83100
C428        C  0.75155070  0.56263199  0.30099951     0.97600
C429        C  0.75899210  0.59570200  0.39601380     1.05100
O430        O  0.74140569  0.54967663  0.40121729    -1.12100
O431        O  0.74840582  0.54016754  0.48665444    -0.74600
O432        O  0.77400045  0.56346079  0.45754792    -0.78000
O433        O  0.73529925  0.55773572  0.31408848    -0.78700
C434        C  0.76495691  0.55334959  0.48962906     0.96500
O435        O  0.77130290  0.54235506  0.37930125    -0.76700
O436        O  0.71180329  0.53257728  0.46530887    -0.81900
C437        C  0.70061253  0.51443833  0.36819370     0.99100
C438        C  0.70790452  0.54540036  0.46374667     1.05100
O439        O  0.70364517  0.53077495  0.36382998    -0.77500
C440        C  0.76359387  0.52573038  0.39176375     1.03400
Fe441      Fe  0.55734873  0.46526421  0.77793776     1.65800
Fe442      Fe  0.59318604  0.46165267  0.73630713     1.73200
Fe443      Fe  0.60190835  0.49981547  0.79370558     1.54400
O444        O  0.58591696  0.51196612  0.78344252    -0.81300
O445        O  0.61075277  0.46338964  0.78590757    -0.79600
O446        O  0.55814876  0.48952827  0.76412999    -0.83800
O447        O  0.56095644  0.47109688  0.84429490    -0.78600
O448        O  0.61413176  0.50997747  0.73426816    -0.80400
O449        O  0.57377323  0.43589252  0.75899516    -0.83100
C450        C  0.57483639  0.48039243  0.86906239     0.97600
C451        C  0.56966201  0.50640359  0.76998375     1.05100
O452        O  0.58401967  0.47551757  0.76931543    -1.12100
O453        O  0.57648618  0.45881533  0.68417787    -0.74600
O454        O  0.55176984  0.45874613  0.71218849    -0.78000
O455        O  0.59108211  0.49118568  0.85505290    -0.78700
C456        C  0.56071659  0.45743669  0.68002133     0.96500
O457        O  0.55201581  0.43908528  0.79255544    -0.76700
O458        O  0.61399751  0.48521515  0.70753983    -0.81900
C459        C  0.62271628  0.47777705  0.80562447     0.99100
C460        C  0.61976755  0.50241117  0.70732014     1.05100
O461        O  0.62140248  0.49220464  0.80720033    -0.77500
C462        C  0.55880776  0.42932886  0.78024961     1.03400
Fe463      Fe  0.45806644  0.56474157  0.73309616     1.65800
Fe464      Fe  0.45824824  0.60183939  0.78043929     1.73200
Fe465      Fe  0.49555237  0.60802838  0.72291241     1.54400
O466        O  0.50500543  0.58977025  0.73005909    -0.81300
O467        O  0.46272383  0.62172193  0.73426061    -0.79600
O468        O  0.48097050  0.56222924  0.74343804    -0.83800
O469        O  0.46386747  0.56960280  0.66728912    -0.78600
O470        O  0.50585936  0.61820821  0.78424842    -0.80400
O471        O  0.43230419  0.58555487  0.75419676    -0.83100
C472        C  0.47438562  0.58359065  0.64403872     0.97600
C473        C  0.49816202  0.57285720  0.73882798     1.05100
O474        O  0.47055952  0.59140988  0.74553850    -1.12100
O475        O  0.45297101  0.58290361  0.82943613    -0.74600
O476        O  0.45129994  0.55794124  0.79794297    -0.78000
O477        O  0.48657165  0.59902263  0.65986772    -0.78700
C478        C  0.45051859  0.56665562  0.83104675     0.96500
O479        O  0.43291650  0.56245018  0.72062797    -0.76700
O480        O  0.48226541  0.61999415  0.81248398    -0.81900
C481        C  0.47771825  0.63280757  0.71504744     0.99100
C482        C  0.49903380  0.62395907  0.81310265     1.05100
O483        O  0.49097850  0.62964625  0.71264357    -0.77500
C484        C  0.42461108  0.57090624  0.73186704     1.03400
Fe485      Fe  0.56278701  0.77851824  0.12183679     1.65800
Fe486      Fe  0.52600421  0.74245033  0.07194242     1.73200
Fe487      Fe  0.55559248  0.73494419  0.13148150     1.54400
O488        O  0.58375890  0.75296468  0.12549154    -0.81300
O489        O  0.50949396  0.72337986  0.11851956    -0.79600
O490        O  0.58776283  0.78040561  0.10890210    -0.83800
O491        O  0.56434186  0.77342934  0.18757808    -0.78600
O492        O  0.55630468  0.72543004  0.06989112    -0.80400
O493        O  0.51761832  0.76037284  0.09475643    -0.83100
C494        C  0.55977867  0.75913176  0.21060470     0.97600
C495        C  0.59408625  0.76967318  0.11456424     1.05100
O496        O  0.54817907  0.75209121  0.10854310    -1.12100
O497        O  0.54101571  0.76058510  0.02281508    -0.74600
O498        O  0.56246376  0.78602475  0.05688421    -0.78000
O499        O  0.55529119  0.74345175  0.19453423    -0.78700
C500        C  0.55414036  0.77723277  0.02247066     0.96500
O501        O  0.54002142  0.78049784  0.13729996    -0.76700
O502        O  0.53071736  0.72304881  0.04212145    -0.81900
C503        C  0.51244119  0.71165156  0.13759373     0.99100
C504        C  0.54380096  0.71952364  0.04097082     1.05100
O505        O  0.52855522  0.71378892  0.14059969    -0.77500
C506        C  0.52413153  0.77394731  0.12074044     1.03400
Fe507      Fe  0.76406133  0.87447335  0.06763964     1.65800
Fe508      Fe  0.80220473  0.87472615  0.10736938     1.73200
Fe509      Fe  0.77058659  0.83795927  0.04893656     1.54400
O510        O  0.74262299  0.82777813  0.06105139    -0.81300
O511        O  0.81706696  0.87189007  0.05702454    -0.79600
O512        O  0.73969589  0.85128230  0.08336845    -0.83800
O513        O  0.76025030  0.86834274  0.00171291    -0.78600
O514        O  0.77189824  0.82672495  0.10757688    -0.80400
O515        O  0.81039919  0.90116133  0.08480693    -0.83100
C516        C  0.76393410  0.85883887  0.97552116     0.97600
C517        C  0.73294953  0.83423556  0.07648471     1.05100
O518        O  0.77890412  0.86242785  0.07471412    -1.12100
O519        O  0.78940183  0.87856261  0.16054592    -0.74600
O520        O  0.76650348  0.88183526  0.13294919    -0.78000
O521        O  0.76890979  0.84751977  0.98800927    -0.78700
C522        C  0.77628139  0.88195716  0.16482372     0.96500
O523        O  0.78621605  0.89961038  0.05102461    -0.55100
O524        O  0.79758434  0.85016284  0.13530113    -0.81900
C525        C  0.81363571  0.85731430  0.03674742     0.99100
C526        C  0.78512365  0.83319786  0.13465270     1.05100
O527        O  0.79725453  0.84369917  0.03410710    -0.77500
C528        C  0.80293846  0.90851562  0.06285641     1.03400
Fe529      Fe  0.89052524  0.12895861  0.45410896     1.65800
Fe530      Fe  0.92887779  0.13125860  0.40908008     1.73200
Fe531      Fe  0.93317124  0.16613920  0.47499362     1.54400
O532        O  0.91478672  0.17545629  0.46563816    -0.81300
O533        O  0.94881125  0.13521215  0.45398369    -0.79600
O534        O  0.88874611  0.15194695  0.43974485    -0.83800
O535        O  0.89273745  0.13459328  0.52010640    -0.78600
O536        O  0.94566153  0.17879909  0.41685486    -0.80400
O537        O  0.91257451  0.10464358  0.43379502    -0.83100
C538        C  0.90533012  0.14435858  0.54735105     0.97600
C539        C  0.89879805  0.16881163  0.44939011     1.05100
O540        O  0.91754723  0.14204959  0.44630951    -1.12100
O541        O  0.91074292  0.12635995  0.35905669    -0.74600
O542        O  0.88461893  0.12143664  0.38939118    -0.78000
O543        O  0.92179333  0.15579626  0.53561751    -0.78700
C544        C  0.89391177  0.12189095  0.35625503     0.96500
O545        O  0.88910246  0.10438981  0.46866373    -0.76700
O546        O  0.94638744  0.15637150  0.37940053    -0.81900
C547        C  0.95852779  0.14866697  0.47897025     0.99100
C548        C  0.95072486  0.17316391  0.38406269     1.05100
O549        O  0.95446480  0.16096600  0.48828661    -0.77500
C550        C  0.89794548  0.09649962  0.45678684     1.03400
Fe551      Fe  0.78740967  0.22543560  0.39852759     1.65800
Fe552      Fe  0.78654520  0.26177508  0.44360486     1.73200
Fe553      Fe  0.82347589  0.26880258  0.38463438     1.54400
O554        O  0.83327585  0.25044708  0.38897947    -0.81300
O555        O  0.78822460  0.27898813  0.39385130    -0.79600
O556        O  0.81050065  0.22461583  0.41695032    -0.83800
O557        O  0.79521934  0.22933734  0.33278674    -0.78600
O558        O  0.83422399  0.27898568  0.44574279    -0.80400
O559        O  0.75997449  0.24254246  0.42283342    -0.83100
C560        C  0.80350304  0.24349967  0.30829922     0.97600
C561        C  0.82712128  0.23442366  0.40476899     1.05100
O562        O  0.79910256  0.25187080  0.40899958    -1.12100
O563        O  0.78415063  0.24518280  0.49488797    -0.74600
O564        O  0.77786922  0.21875591  0.46297883    -0.78000
O565        O  0.81375235  0.25970924  0.32282438    -0.78700
C566        C  0.77862359  0.22807163  0.49666831     0.96500
O567        O  0.76304068  0.22323600  0.37887403    -0.76700
O568        O  0.81110634  0.28230282  0.47108554    -0.81900
C569        C  0.80297234  0.29093676  0.37530622     0.99100
C570        C  0.82774295  0.28570317  0.47306793     1.05100
O571        O  0.81757960  0.28982885  0.37539386    -0.77500
C572        C  0.75324482  0.22903801  0.39645640     1.03400
Fe573      Fe  0.09765778  0.23559446  0.06415829     1.65800
Fe574      Fe  0.05945532  0.19871087  0.10799740     1.73200
Fe575      Fe  0.05529770  0.23206915  0.05375611     1.54400
O576        O  0.07422696  0.25942296  0.06652680    -0.81300
O577        O  0.03702887  0.18464945  0.06706565    -0.79600
O578        O  0.10153714  0.26158795  0.07156185    -0.83800
O579        O  0.09329080  0.23618718  0.99843743    -0.78600
O580        O  0.04446313  0.23086854  0.11545473    -0.80400
O581        O  0.07279884  0.18757017  0.07320285    -0.83100
C582        C  0.08040709  0.23561115  0.97524076     0.97600
C583        C  0.09153231  0.26887933  0.07173918     1.05100
O584        O  0.07076094  0.22208056  0.07498109    -1.12100
O585        O  0.08006027  0.20964072  0.15453756    -0.74600
O586        O  0.10342072  0.23620485  0.12944916    -0.78000
O587        O  0.06555138  0.23410463  0.99089953    -0.78700
C588        C  0.09525272  0.22458396  0.15967001     0.96500
O589        O  0.09933406  0.21217677  0.05458344    -0.76700
O590        O  0.04483900  0.20712579  0.14674035    -0.81900
C591        C  0.02761245  0.18966170  0.04467008     0.99100
C592        C  0.04089368  0.21993377  0.14746171     1.05100
O593        O  0.03300865  0.20652822  0.03764550    -0.77500
C594        C  0.08895723  0.19487160  0.05728534     1.03400
Fe595      Fe  0.20278281  0.43983908  0.11366114     1.65800
Fe596      Fe  0.20165470  0.47726316  0.07481376     1.73200
Fe597      Fe  0.16529613  0.44495111  0.13305297     1.54400
O598        O  0.15572042  0.41736722  0.11996292    -0.81300
O599        O  0.19906458  0.49132750  0.12713709    -0.79600
O600        O  0.17984364  0.41486910  0.09986902    -0.83800
O601        O  0.19742847  0.43641498  0.17992788    -0.78600
O602        O  0.15352420  0.44666824  0.07533537    -0.80400
O603        O  0.22846850  0.48602706  0.09451144    -0.83100
C604        C  0.18738447  0.43947315  0.20586548     0.97600
C605        C  0.16268435  0.40789160  0.10638154     1.05100
O606        O  0.18988696  0.45386635  0.10690154    -1.12100
O607        O  0.20511500  0.46471242  0.02067026    -0.74600
O608        O  0.20934370  0.44230826  0.04781250    -0.78000
O609        O  0.17514541  0.44316934  0.19329558    -0.78700
C610        C  0.20889566  0.45187263  0.01606708     0.96500
O611        O  0.22786775  0.46252272  0.12897486    -0.76700
O612        O  0.17685504  0.47277214  0.04943457    -0.81900
C613        C  0.18465390  0.48738194  0.14904019     0.99100
C614        C  0.15983406  0.46055147  0.05021406     1.05100
O615        O  0.17085609  0.47112673  0.14979803    -0.77500
C616        C  0.23630606  0.47912650  0.11643244     1.03400
Fe617      Fe  0.89625836  0.44061025  0.78086200     1.65800
Fe618      Fe  0.85907419  0.40325653  0.73652188     1.73200
Fe619      Fe  0.89039278  0.39744006  0.79350447     1.54400
O620        O  0.91835081  0.41601520  0.78618802    -0.81300
O621        O  0.84405330  0.38453641  0.78460729    -0.79600
O622        O  0.92122636  0.44281432  0.76674538    -0.83800
O623        O  0.89872693  0.43655643  0.84628764    -0.78600
O624        O  0.89045055  0.38706561  0.73243614    -0.80400
O625        O  0.85000835  0.42047635  0.76063942    -0.83100
C626        C  0.89504805  0.42276216  0.87027580     0.97600
C627        C  0.92807096  0.43267477  0.77438727     1.05100
O628        O  0.88199772  0.41390718  0.77027760    -1.12100
O629        O  0.87225259  0.42116079  0.68636706    -0.74600
O630        O  0.89463598  0.44703296  0.71639356    -0.78000
O631        O  0.89085693  0.40692547  0.85569966    -0.78700
C632        C  0.88496708  0.43791366  0.68381399     0.96500
O633        O  0.87366078  0.44278105  0.79655738    -0.76700
O634        O  0.86461062  0.38458981  0.70527819    -0.81900
C635        C  0.84746136  0.37302462  0.80286482     0.99100
C636        C  0.87778896  0.38116551  0.70383223     1.05100
O637        O  0.86377564  0.37563298  0.80485483    -0.77500
C638        C  0.85719713  0.43515873  0.78301195     1.03400
Fe639      Fe  0.09779118  0.54419111  0.72798279     1.65800
Fe640      Fe  0.13544294  0.54520331  0.76788972     1.73200
Fe641      Fe  0.10343172  0.50735952  0.71260722     1.54400
O642        O  0.07712004  0.49672667  0.73721964    -0.81300
O643        O  0.14897632  0.53487475  0.73079299    -0.79600
O644        O  0.07242583  0.52028251  0.72920828    -0.83800
O645        O  0.09941632  0.54216347  0.66166785    -0.78600
O646        O  0.11026903  0.49849490  0.76943688    -0.80400
O647        O  0.14561018  0.56774843  0.72646492    -0.83100
C648        C  0.09731959  0.52875431  0.63808503     0.97600
C649        C  0.06644351  0.50330293  0.73574057     1.05100
O650        O  0.11219834  0.53206505  0.73604475    -1.12100
O651        O  0.12524647  0.55721966  0.81086752    -0.74600
O652        O  0.09571953  0.54616922  0.79429670    -0.78000
O653        O  0.09606301  0.51405338  0.65352032    -0.78700
C654        C  0.10900032  0.55353128  0.82118638     0.96500
O655        O  0.12071143  0.57057139  0.72505523    -0.76700
O656        O  0.12675283  0.52354747  0.81088269    -0.81900
C657        C  0.14479037  0.52388369  0.69879345     0.99100
C658        C  0.11819247  0.50619959  0.80510079     1.05100
O659        O  0.12845345  0.51471824  0.68450688    -0.77500
C660        C  0.13789490  0.57716649  0.71854313     1.03400
Fe661      Fe  0.76122402  0.89757118  0.56830626     1.65800
Fe662      Fe  0.76975009  0.94130224  0.54869173     1.73200
Fe663      Fe  0.80044850  0.93478487  0.60748215     1.54400
O664        O  0.78748794  0.91763198  0.65998303    -0.81300
O665        O  0.79649539  0.96166795  0.53465542    -0.79600
O666        O  0.76205130  0.89300629  0.63443293    -0.83800
O667        O  0.78287745  0.89296183  0.55609615    -0.78600
O668        O  0.79591329  0.95442901  0.63701460    -0.80400
O669        O  0.76834242  0.92987810  0.48807326    -0.83100
C670        C  0.80004137  0.90109078  0.56410974     0.97600
C671        C  0.77298118  0.90203040  0.66544579     1.05100
O672        O  0.77707472  0.92445249  0.57498374    -1.12100
O673        O  0.74156699  0.92457715  0.55861155    -0.74600
O674        O  0.73678923  0.89732708  0.57969103    -0.78000
O675        O  0.80835415  0.91670690  0.58269182    -0.78700
C676        C  0.73093810  0.90833407  0.57212091     0.96500
O677        O  0.75941537  0.90022608  0.50152600    -0.76700
O678        O  0.77121577  0.95387228  0.60763856    -0.81900
C679        C  0.81270901  0.96418012  0.53747638     0.99100
C680        C  0.78395334  0.95957226  0.63604914     1.05100
O681        O  0.81589387  0.95305540  0.55845055    -0.77500
C682        C  0.76376996  0.91365253  0.47553086     1.03400
Fe683      Fe  0.56241448  0.79994117  0.61715899     1.65800
Fe684      Fe  0.55317831  0.83493409  0.63468902     1.73200
Fe685      Fe  0.52255203  0.79655351  0.57858352     1.54400
O686        O  0.53519441  0.79213689  0.52608327    -0.81300
O687        O  0.52627739  0.82762015  0.65195381    -0.79600
O688        O  0.56040169  0.79260863  0.55199833    -0.83800
O689        O  0.54141139  0.77407697  0.63307478    -0.78600
O690        O  0.52589368  0.81989322  0.54715142    -0.80400
O691        O  0.55657501  0.82651144  0.69603510    -0.83100
C692        C  0.52432402  0.76457640  0.62496694     0.97600
C693        C  0.54931606  0.79040279  0.52119997     1.05100
O694        O  0.54611494  0.81047956  0.61001791    -1.12100
O695        O  0.58128078  0.84676528  0.62055412    -0.74600
O696        O  0.58610853  0.82399685  0.60209057    -0.78000
O697        O  0.51569675  0.77120548  0.60510480    -0.78700
C698        C  0.59183694  0.84098261  0.60713686     0.96500
O699        O  0.56572203  0.80596550  0.68320543    -0.76700
O700        O  0.54985149  0.84496549  0.57549929    -0.81900
C701        C  0.51020598  0.81355158  0.64889087     0.99100
C702        C  0.53709296  0.83719389  0.54721321     1.05100
O703        O  0.50735808  0.79940107  0.62771213    -0.77500
C704        C  0.56191993  0.81550612  0.70895662     1.03400
Fe705      Fe  0.55184598  0.10348798  0.27299203     1.65800
Fe706      Fe  0.59350140  0.10792786  0.29960183     1.73200
Fe707      Fe  0.59118370  0.13948589  0.23317704     1.54400
O708        O  0.57123813  0.12885141  0.18524594    -0.81300
O709        O  0.61316744  0.13364728  0.32208238    -0.79600
O710        O  0.54905185  0.10120925  0.20654592    -0.83800
O711        O  0.54981982  0.12717376  0.27269650    -0.78600
O712        O  0.60583425  0.12964308  0.19960534    -0.80400
O713        O  0.57880487  0.10431331  0.35670527    -0.83100
C714        C  0.56079879  0.14448570  0.27195236     0.97600
C715        C  0.55685109  0.11349282  0.17753119     1.05100
O716        O  0.57896636  0.11701172  0.26884866    -1.12100
O717        O  0.57657252  0.08072686  0.28063938    -0.74600
O718        O  0.54885246  0.07756915  0.27355144    -0.78000
O719        O  0.57788176  0.15153255  0.26378239    -0.78700
C720        C  0.55934658  0.07077066  0.27425717     0.96500
O721        O  0.55297695  0.10460515  0.33974699    -0.76700
O722        O  0.60985896  0.11132047  0.24602187    -0.81900
C723        C  0.62019373  0.14980470  0.30655397     0.99100
C724        C  0.61303304  0.11996403  0.21017005     1.05100
O725        O  0.61306411  0.15361391  0.27482132    -0.77500
C726        C  0.56408470  0.10429822  0.36747728     1.03400
Fe727      Fe  0.45097063  0.89893379  0.22750699     1.65800
Fe728      Fe  0.48903358  0.89489961  0.21115793     1.73200
Fe729      Fe  0.45411141  0.86432544  0.27509717     1.54400
O730        O  0.45152210  0.87896654  0.32524266    -0.81300
O731        O  0.48396961  0.86832291  0.19956726    -0.79600
O732        O  0.44121615  0.89541651  0.29139635    -0.83800
O733        O  0.42755454  0.87497433  0.20818679    -0.78600
O734        O  0.47934478  0.87015146  0.30095504    -0.80400
O735        O  0.47856548  0.89434045  0.15015287    -0.83100
C736        C  0.41921329  0.85937623  0.22690648     0.97600
C737        C  0.44395845  0.88881010  0.32604346     1.05100
O738        O  0.46476543  0.88613097  0.23790267    -1.12100
O739        O  0.49732951  0.92268129  0.21936814    -0.74600
O740        O  0.47315647  0.92402521  0.24564650    -0.78000
O741        O  0.42702249  0.85466430  0.25542060    -0.78700
C742        C  0.49019445  0.93160552  0.23591757     0.96500
O743        O  0.45863164  0.90401346  0.16236298    -0.76700
O744        O  0.50156780  0.89578845  0.27006942    -0.81900
C745        C  0.47044913  0.85202956  0.20490151     0.99100
C746        C  0.49598320  0.88320028  0.29873520     1.05100
O747        O  0.45627992  0.84850019  0.22718860    -0.77500
C748        C  0.46777427  0.89974839  0.13647843     1.03400
Fe749      Fe  0.86203198  0.10688181  0.95371485     1.65800
Fe750      Fe  0.82639511  0.06402402  0.97598416     1.73200
Fe751      Fe  0.86264512  0.06990844  0.91343994     1.54400
O752        O  0.87222159  0.09089261  0.86728909    -0.81300
O753        O  0.83572666  0.04776454  0.00359914    -0.79600
O754        O  0.86261798  0.11023316  0.88708180    -0.83800
O755        O  0.88875537  0.11129443  0.95325621    -0.78600
O756        O  0.83955894  0.05518725  0.87570241    -0.80400
O757        O  0.83417180  0.07967296  0.03281066    -0.83100
C758        C  0.89604310  0.10121577  0.95577661     0.97600
C759        C  0.86883697  0.10374299  0.85859387     1.05100
O760        O  0.85021487  0.08015879  0.94769987    -1.12100
O761        O  0.81422478  0.07840979  0.95203911    -0.74600
O762        O  0.83759248  0.10729719  0.95497489    -0.78000
O763        O  0.88691074  0.08394799  0.94907146    -0.78700
C764        C  0.82056460  0.09566246  0.95081651     0.96500
O765        O  0.86175855  0.10446959  0.02045952    -0.76700
O766        O  0.81598866  0.04642922  0.92229619    -0.81900
C767        C  0.84430896  0.04037777  0.98684895     0.99100
C768        C  0.82257225  0.04553546  0.88550531     1.05100
O769        O  0.85417428  0.04694858  0.95287513    -0.77500
C770        C  0.84889880  0.09375307  0.04625517     1.03400
Fe771      Fe  0.76592457  0.20864655  0.89891076     1.65800
Fe772      Fe  0.72229971  0.17227220  0.88921573     1.73200
Fe773      Fe  0.73039364  0.21126068  0.94330712     1.54400
O774        O  0.75297806  0.22298773  0.98525705    -0.81300
O775        O  0.70390083  0.17927906  0.86324400    -0.79600
O776        O  0.77180498  0.21282036  0.96442825    -0.83800
O777        O  0.76968058  0.23485991  0.89123554    -0.78600
O778        O  0.71754288  0.19022590  0.98722064    -0.80400
O779        O  0.73533022  0.17739567  0.82836825    -0.83100
C780        C  0.75950865  0.24209157  0.88939257     0.97600
C781        C  0.76613103  0.21991224  0.99255237     1.05100
O782        O  0.73939384  0.19734526  0.91003958    -1.12100
O783        O  0.73797783  0.16175093  0.91393620    -0.74600
O784        O  0.76676105  0.18455853  0.90481763    -0.78000
O785        O  0.74277317  0.23361240  0.90179595    -0.78700
C786        C  0.75522889  0.16793975  0.91404503     0.96500
O787        O  0.76138115  0.20464516  0.83304687    -0.76700
O788        O  0.70752727  0.16463669  0.94729870    -0.81900
C789        C  0.69769796  0.18915316  0.87865997     0.99100
C790        C  0.70773579  0.17291409  0.98228033     1.05100
O791        O  0.70592090  0.20108360  0.90832972    -0.77500
C792        C  0.74953539  0.19094765  0.81101496     1.03400
C793        C  0.78607448  0.11113580  0.97698155    -0.05100
C794        C  0.78790997  0.12188318  0.93992359     0.09100
C795        C  0.79945854  0.12286480  0.90518138    -0.02400
C796        C  0.80934298  0.11337465  0.90772192    -0.00700
C797        C  0.80784773  0.10294868  0.94516538    -0.04300
C798        C  0.79597009  0.10161335  0.97954083     0.02700
C799        C  0.77819181  0.13273172  0.93761823     0.09500
C800        C  0.80170320  0.13425711  0.86751521     0.35400
C801        C  0.79464452  0.09119522  0.01843563     0.38900
C802        C  0.78584476  0.15005006  0.95828854    -0.04700
C803        C  0.77796492  0.16129712  0.95188738     0.02500
C804        C  0.76234583  0.15529820  0.92454602    -0.04300
C805        C  0.75414989  0.13748690  0.90569248    -0.00500
C806        C  0.76206648  0.12627559  0.91229767    -0.03100
C807        C  0.80206682  0.15642011  0.98559887     0.36200
C808        C  0.73810774  0.13095412  0.87769086     0.39800
C809        C  0.78592075  0.17897030  0.97394479     0.38900
C810        C  0.75388104  0.10819257  0.89225131     0.35900
C811        C  0.77455625  0.11049633  0.01309149     0.36500
C812        C  0.82120001  0.11445746  0.87189543     0.39800
N813        N  0.79240359  0.19303604  0.99168109    -0.38300
N814        N  0.81494988  0.16145507  0.00754939    -0.39900
N815        N  0.72530063  0.12572838  0.85538766    -0.37600
N816        N  0.74738814  0.09376590  0.87628192    -0.40000
N817        N  0.80351687  0.14342647  0.83762657    -0.39800
N818        N  0.83061118  0.11531847  0.84322771    -0.37400
N819        N  0.79361413  0.08290803  0.04949330    -0.38500
N820        N  0.76549023  0.11017136  0.04199525    -0.40100
C821        C  0.68069419  0.13555838  0.06670478    -0.05100
C822        C  0.66911616  0.14175831  0.08373101     0.09100
C823        C  0.67056901  0.15827212  0.06843459    -0.02400
C824        C  0.68335269  0.16845825  0.03564739    -0.00700
C825        C  0.69492976  0.16225180  0.01804221    -0.04300
C826        C  0.69352573  0.14571813  0.03355210     0.02700
C827        C  0.65501848  0.13108413  0.11760517     0.09500
C828        C  0.65867485  0.16467851  0.08624084     0.35400
C829        C  0.70538216  0.13928318  0.01590729     0.38900
C830        C  0.65973469  0.13483773  0.16197276    -0.04700
C831        C  0.64569815  0.12927204  0.19351431     0.02500
C832        C  0.62698738  0.12020738  0.18038661    -0.04300
C833        C  0.62231329  0.11449063  0.13679529    -0.00500
C834        C  0.63635128  0.12000984  0.10527572    -0.03100
C835        C  0.67899449  0.14571695  0.17461514     0.36200
C836        C  0.60307067  0.10325634  0.12444328     0.39800
C837        C  0.65058393  0.13409871  0.23891831     0.38900
C838        C  0.63163598  0.11552917  0.05971772     0.35900
C839        C  0.67936559  0.11878244  0.08346031     0.36500
C840        C  0.68376087  0.18478942  0.01835153     0.39800
N841        N  0.65454869  0.13788705  0.27511733    -0.38300
N842        N  0.69435898  0.15443123  0.18463433    -0.39900
N843        N  0.58771521  0.09415219  0.11470417    -0.37600
N844        N  0.62795116  0.11206468  0.02329376    -0.40000
N845        N  0.64916659  0.16973941  0.10040576    -0.39800
N846        N  0.68403439  0.19774186  0.00441293    -0.37400
N847        N  0.71482668  0.13412492  0.00182411    -0.38500
N848        N  0.67831926  0.10542829  0.09707848    -0.40100
C849        C  0.51143264  0.97896313  0.28979064    -0.05100
C850        C  0.52277629  0.99060069  0.25607010     0.09100
C851        C  0.52427756  0.98275088  0.21663396    -0.02400
C852        C  0.51366378  0.96351960  0.20992530    -0.00700
C853        C  0.50215596  0.95181723  0.24356037    -0.04300
C854        C  0.50159544  0.95964470  0.28401293     0.02700
C855        C  0.53239592  0.01119387  0.26089751     0.09500
C856        C  0.53660741  0.99459423  0.18266831     0.35400
C857        C  0.49139155  0.94782179  0.32031143     0.38900
C858        C  0.54833848  0.02067456  0.28698157    -0.04700
C859        C  0.55746532  0.04010806  0.29072844     0.02500
C860        C  0.55082434  0.05033516  0.26786566    -0.04300
C861        C  0.53520988  0.04068805  0.24030834    -0.00500
C862        C  0.52577102  0.02126854  0.23802425    -0.03100
C863        C  0.55525215  0.01034477  0.31032429     0.36200
C864        C  0.52922016  0.05063315  0.21235265     0.39800
C865        C  0.57354955  0.04937193  0.31865185     0.38900
C866        C  0.50895337  0.01153398  0.21252405     0.35900
C867        C  0.50952064  0.98690292  0.33010181     0.36500
C868        C  0.51387566  0.95599423  0.16748885     0.39800
N869        N  0.58647943  0.05666592  0.34068219    -0.38300
N870        N  0.56068734  0.00207557  0.32912528    -0.39900
N871        N  0.52441568  0.05837829  0.18952107    -0.37600
N872        N  0.49548976  0.00372089  0.19243328    -0.40000
N873        N  0.54649650  0.00411779  0.15576171    -0.39800
N874        N  0.51400071  0.95014228  0.13340366    -0.37400
N875        N  0.48349654  0.93847451  0.34960795    -0.38500
N876        N  0.50792653  0.99321514  0.36223097    -0.40100
C877        C  0.52036366  0.88826838  0.40594651    -0.05100
C878        C  0.52540738  0.87461596  0.40127137     0.09100
C879        C  0.52388336  0.86645061  0.36008726    -0.02400
C880        C  0.51572077  0.87061773  0.32496645    -0.00700
C881        C  0.50908558  0.88298916  0.33086077    -0.04300
C882        C  0.51226441  0.89248440  0.37074188     0.02700
C883        C  0.52896914  0.86642524  0.44091805     0.09500
C884        C  0.52964024  0.85288097  0.35469395     0.35400
C885        C  0.50627262  0.90584129  0.37629127     0.38900
C886        C  0.51376536  0.85278515  0.46441577    -0.04700
C887        C  0.51654401  0.84403602  0.50034954     0.02500
C888        C  0.53463548  0.84840956  0.51268037    -0.04300
C889        C  0.54993776  0.86278436  0.49030332    -0.00500
C890        C  0.54706488  0.87175630  0.45457345    -0.03100
C891        C  0.49510774  0.84760280  0.45116676     0.36200
C892        C  0.56862775  0.86800305  0.50293611     0.39800
C893        C  0.50058628  0.83089929  0.52525925     0.38900
C894        C  0.56267280  0.88640133  0.43158820     0.35900
C895        C  0.52239211  0.89703967  0.44790807     0.36500
C896        C  0.51343023  0.86159108  0.28321569     0.39800
N897        N  0.48763872  0.82055264  0.54469145    -0.38300
N898        N  0.48027990  0.84354027  0.44051142    -0.39900
N899        N  0.58354713  0.87220255  0.51310019    -0.37600
N900        N  0.57511269  0.89815309  0.41327999    -0.40000
N901        N  0.53424366  0.84206144  0.35043562    -0.39800
N902        N  0.51172182  0.85444586  0.24988014    -0.37400
N903        N  0.50157387  0.91656519  0.38086265    -0.38500
N904        N  0.52396104  0.90395138  0.48151059    -0.40100
C905        C  0.79844543  0.00155382  0.81997946    -0.05100
C906        C  0.79461935  0.00795903  0.78109757     0.09100
C907        C  0.79719860  0.02592356  0.77941296    -0.02400
C908        C  0.80514408  0.03798238  0.81514150    -0.00700
C909        C  0.81032101  0.03200728  0.85272944    -0.04300
C910        C  0.80627040  0.01355443  0.85572530     0.02700
C911        C  0.79082450  0.99684436  0.74036360     0.09500
C912        C  0.79244475  0.03219327  0.74013372     0.35400
C913        C  0.81131324  0.00720875  0.89441818     0.38900
C914        C  0.77312912  0.98164088  0.73183330    -0.04700
C915        C  0.77044936  0.96989535  0.69609636     0.02500
C916        C  0.78559221  0.97319460  0.66931247    -0.04300
C917        C  0.80302335  0.98906857  0.67655875    -0.00500
C918        C  0.80564153  0.00075056  0.71203368    -0.03100
C919        C  0.75791902  0.97773252  0.76091228     0.36200
C920        C  0.81839962  0.99347170  0.64748433     0.39800
C921        C  0.75238978  0.95390100  0.68844865     0.38900
C922        C  0.82387436  0.01640402  0.72049828     0.35900
C923        C  0.79539907  0.98293893  0.82220128     0.36500
C924        C  0.80870554  0.05675623  0.81265909     0.39800
N925        N  0.73797965  0.94114200  0.68229304    -0.38300
N926        N  0.74583684  0.97460385  0.78434958    -0.39900
N927        N  0.83074306  0.99709615  0.62452131    -0.37600
N928        N  0.83844914  0.02882348  0.72712397    -0.40000
N929        N  0.78861537  0.03715096  0.70874525    -0.39800
N930        N  0.81158377  0.07175135  0.81071958    -0.37400
N931        N  0.81527533  0.00189109  0.92494256    -0.38500
N932        N  0.79295862  0.96809529  0.82399484    -0.40100
C933        C  0.68137680  0.89801001  0.55231360    -0.05100
C934        C  0.67178368  0.88571641  0.58675359     0.09100
C935        C  0.68184286  0.88216862  0.61838706    -0.02400
C936        C  0.70124519  0.89039724  0.61492974    -0.00700
C937        C  0.71078783  0.90169775  0.57871824    -0.04300
C938        C  0.70072435  0.90580285  0.54793323     0.02700
C939        C  0.65099639  0.87573847  0.58868574     0.09500
C940        C  0.67211996  0.86962862  0.65404427     0.35400
C941        C  0.71003049  0.91743870  0.51063607     0.38900
C942        C  0.64052305  0.86081415  0.56032951    -0.04700
C943        C  0.62108442  0.85045834  0.56412885     0.02500
C944        C  0.61187966  0.85425730  0.59798484    -0.04300
C945        C  0.62238024  0.86980224  0.62510279    -0.00500
C946        C  0.64177652  0.88065436  0.61981268    -0.03100
C947        C  0.64984446  0.85578733  0.52783950     0.36200
C948        C  0.61351950  0.87422746  0.65995360     0.39800
C949        C  0.61058252  0.83602371  0.53254563     0.38900
C950        C  0.65236813  0.89683529  0.64674508     0.35900
C951        C  0.67119820  0.90239630  0.52096906     0.36500
C952        C  0.71142784  0.88760841  0.64945858     0.39800
N953        N  0.60220802  0.82457629  0.50725809    -0.38300
N954        N  0.65730608  0.85179126  0.50197759    -0.39900
N955        N  0.60649876  0.87776888  0.68787153    -0.37600
N956        N  0.66084392  0.90981364  0.66801889    -0.40000
N957        N  0.66433088  0.85959972  0.68242230    -0.39800
N958        N  0.71959242  0.88552646  0.67711605    -0.37400
N959        N  0.71740535  0.92673115  0.48085376    -0.38500
N960        N  0.66301220  0.90585499  0.49606667    -0.40100
C961        C  0.97943882  0.46643862  0.78697445    -0.05100
C962        C  0.98713495  0.45833143  0.76023260     0.09100
C963        C  0.97553154  0.44126903  0.73981712    -0.02400
C964        C  0.95617583  0.43261377  0.74488343    -0.00700
C965        C  0.94839809  0.44100141  0.77062166    -0.04300
C966        C  0.96015682  0.45774167  0.79250224     0.02700
C967        C  0.00744078  0.46850992  0.75161295     0.09500
C968        C  0.98356564  0.43288108  0.71287471     0.35400
C969        C  0.95246798  0.46584715  0.82160136     0.38900
C970        C  0.01952212  0.46566365  0.77810142    -0.04700
C971        C  0.03882832  0.47662136  0.77234965     0.02500
C972        C  0.04613526  0.49080211  0.74056570    -0.04300
C973        C  0.03383738  0.49308531  0.71298972    -0.00500
C974        C  0.01460408  0.48182877  0.71826468    -0.03100
C975        C  0.01200635  0.45155269  0.81156976     0.36200
C976        C  0.04085050  0.50679272  0.67848785     0.39800
C977        C  0.05104308  0.47351405  0.79999832     0.38900
C978        C  0.00206549  0.48387934  0.68926168     0.35900
C979        C  0.99142959  0.48392713  0.80825788     0.36500
C980        C  0.94427775  0.41549280  0.72218895     0.39800
N981        N  0.06069215  0.47082636  0.82188955    -0.38300
N982        N  0.00596439  0.44025498  0.83818376    -0.39900
N983        N  0.04640889  0.51777176  0.65111200    -0.37600
N984        N  0.99203378  0.48538273  0.66599280    -0.40000
N985        N  0.99004962  0.42622898  0.69146039    -0.39800
N986        N  0.93477316  0.40184083  0.70404730    -0.37400
N987        N  0.94635174  0.47227216  0.84493855    -0.38500
N988        N  0.00103424  0.49789778  0.82505892    -0.40100
C989        C  0.80071518  0.32850801  0.81092031    -0.05100
C990        C  0.80404871  0.31926561  0.84481463     0.09100
C991        C  0.82070894  0.32845122  0.86843874    -0.02400
C992        C  0.83445883  0.34648710  0.85665711    -0.00700
C993        C  0.83180796  0.35536740  0.82031576    -0.04300
C994        C  0.81452453  0.34638305  0.79835045     0.02700
C995        C  0.79071454  0.29929692  0.85322717     0.09500
C996        C  0.82386374  0.31905072  0.90419011     0.35400
C997        C  0.81111363  0.35489750  0.76109279     0.38900
C998        C  0.79148415  0.28580495  0.82728554    -0.04700
C999        C  0.77995767  0.26695293  0.83678366     0.02500
C1000       C  0.76814004  0.26144241  0.87355283    -0.04300
C1001       C  0.76657593  0.27494867  0.89793755    -0.00500
C1002       C  0.77777060  0.29382519  0.88752295    -0.03100
C1003       C  0.80465521  0.29138598  0.79166426     0.36200
C1004       C  0.75415459  0.26960043  0.93500913     0.39800
C1005       C  0.78009804  0.25321732  0.80820698     0.38900
C1006       C  0.77637359  0.30770860  0.91273205     0.35900
C1007       C  0.78316538  0.31930536  0.78814434     0.36500
C1008       C  0.85126692  0.35582875  0.88227588     0.39800
N1009       N  0.78015266  0.24235569  0.78500895    -0.38300
N1010       N  0.81523839  0.29586523  0.76343284    -0.39900
N1011       N  0.74421497  0.26534948  0.96453573    -0.37600
N1012       N  0.77527190  0.31882159  0.93274717    -0.40000
N1013       N  0.82629246  0.31148066  0.93266820    -0.39800
N1014       N  0.86463617  0.36322200  0.90284807    -0.37400
N1015       N  0.80834986  0.36164878  0.73136482    -0.38500
N1016       N  0.76914221  0.31195315  0.77009793    -0.40100
C1017       C  0.12425167  0.45312176  0.96281283    -0.05100
C1018       C  0.12857738  0.47150074  0.95565331     0.09100
C1019       C  0.14078665  0.48549788  0.98416292    -0.02400
C1020       C  0.14989002  0.48148221  0.01707849    -0.00700
C1021       C  0.14723624  0.46347402  0.02126422    -0.04300
C1022       C  0.13354378  0.44906724  0.99563460     0.02700
C1023       C  0.12279722  0.47689717  0.91471249     0.09500
C1024       C  0.14481558  0.50434084  0.97805644     0.35400
C1025       C  0.12966745  0.43029765  0.00131928     0.38900
C1026       C  0.10996841  0.48315987  0.91602003    -0.04700
C1027       C  0.10802583  0.49238195  0.87969361     0.02500
C1028       C  0.11828926  0.49460396  0.84129047    -0.04300
C1029       C  0.13017090  0.48724406  0.83908030    -0.00500
C1030       C  0.13260795  0.47864630  0.87582340    -0.03100
C1031       C  0.09939437  0.48078340  0.95541413     0.36200
C1032       C  0.14098594  0.48971655  0.80005665     0.39800
C1033       C  0.09602453  0.50019430  0.88237377     0.38900
C1034       C  0.14622801  0.47276181  0.87461945     0.35900
C1035       C  0.11078667  0.43857259  0.93514693     0.36500
C1036       C  0.16219242  0.49612887  0.04630733     0.39800
N1037       N  0.08652706  0.50651417  0.88463238    -0.38300
N1038       N  0.09095141  0.47886894  0.98685625    -0.39900
N1039       N  0.14978746  0.49168351  0.76926678    -0.37600
N1040       N  0.15714536  0.46815013  0.87383701    -0.40000
N1041       N  0.14800248  0.51934151  0.97319157    -0.39800
N1042       N  0.17199178  0.50799336  0.06918641    -0.37400
N1043       N  0.12651163  0.41529560  0.00596485    -0.38500
N1044       N  0.10002210  0.42698275  0.91302069    -0.40100
C1045       C  0.12543116  0.35753013  0.12317016    -0.05100
C1046       C  0.12910548  0.34890905  0.08824395     0.09100
C1047       C  0.14300066  0.35969755  0.05774428    -0.02400
C1048       C  0.15348656  0.37902292  0.06262735    -0.00700
C1049       C  0.15043137  0.38770521  0.09880430    -0.04300
C1050       C  0.13624541  0.37678631  0.12899461     0.02700
C1051       C  0.11900937  0.32832054  0.08490694     0.09500
C1052       C  0.14665685  0.35080219  0.02161178     0.35400
C1053       C  0.13341550  0.38508839  0.16759338     0.38900
C1054       C  0.10386530  0.31908511  0.05647568    -0.04700
C1055       C  0.09472592  0.29969761  0.05251566     0.02500
C1056       C  0.10061278  0.28931999  0.07736933    -0.04300
C1057       C  0.11587254  0.29875943  0.10599768    -0.00500
C1058       C  0.12496509  0.31813185  0.10965857    -0.03100
C1059       C  0.09791609  0.32965930  0.03073912     0.36200
C1060       C  0.12238089  0.28870469  0.13197138     0.39800
C1061       C  0.07990249  0.29065068  0.02103906     0.38900
C1062       C  0.14071515  0.32771314  0.13854129     0.35900
C1063       C  0.11058354  0.34646042  0.15340078     0.36500
C1064       C  0.16730859  0.38991615  0.03004333     0.39800
N1065       N  0.06812235  0.28346793  0.99581215    -0.38300
N1066       N  0.09325356  0.33815347  0.01016797    -0.39900
N1067       N  0.12781664  0.28086660  0.15254065    -0.37600
N1068       N  0.15327961  0.33539352  0.16151734    -0.40000
N1069       N  0.14952577  0.34365623  0.99282922    -0.39800
N1070       N  0.17833855  0.39858558  0.00407227    -0.37400
N1071       N  0.13122387  0.39166899  0.19853904    -0.38500
N1072       N  0.09865984  0.33760021  0.17730099    -0.40100
C1073       C  0.94772137  0.13419293  0.94628322    -0.05100
C1074       C  0.95385409  0.13308933  0.98836554     0.09100
C1075       C  0.94129518  0.11980311  0.01807249    -0.02400
C1076       C  0.92247685  0.10847525  0.00661177    -0.00700
C1077       C  0.91613449  0.11050510  0.96551890    -0.04300
C1078       C  0.92892059  0.12310132  0.93504316     0.02700
C1079       C  0.97292315  0.14739158  0.00273941     0.09500
C1080       C  0.94765231  0.11824062  0.06090494     0.35400
C1081       C  0.92263469  0.12492675  0.89227175     0.38900
C1082       C  0.97589572  0.16438817  0.01907887    -0.04700
C1083       C  0.99367329  0.17809384  0.03261279     0.02500
C1084       C  0.00898811  0.17530775  0.02826945    -0.04300
C1085       C  0.00603251  0.15839952  0.01064998    -0.00500
C1086       C  0.98802778  0.14442113  0.99859721    -0.03100
C1087       C  0.96054122  0.16780184  0.02173275     0.36200
C1088       C  0.02157196  0.15558227  0.00342752     0.39800
C1089       C  0.99587560  0.19472886  0.05282592     0.38900
C1090       C  0.98498888  0.12697857  0.98166035     0.35900
C1091       C  0.96074879  0.14717912  0.91497889     0.36500
C1092       C  0.90944915  0.09544934  0.03786076     0.39800
N1093       N  0.99750996  0.20792456  0.06905586    -0.38300
N1094       N  0.94831007  0.17054424  0.02345896    -0.39900
N1095       N  0.03399976  0.15340145  0.99735842    -0.37600
N1096       N  0.98249827  0.11300818  0.96827123    -0.40000
N1097       N  0.95274280  0.11696538  0.09506335    -0.39800
N1098       N  0.89900107  0.08504700  0.06271184    -0.37400
N1099       N  0.91764214  0.12641348  0.85817101    -0.38500
N1100       N  0.97121237  0.15751387  0.89006113    -0.40100
C1101       C  0.67056073  0.18820137  0.30860830    -0.05100
C1102       C  0.67496523  0.18845857  0.35299908     0.09100
C1103       C  0.66090075  0.17743570  0.38304010    -0.02400
C1104       C  0.64267860  0.16550919  0.36845446    -0.00700
C1105       C  0.63838289  0.16452975  0.32358286    -0.04300
C1106       C  0.65238855  0.17642062  0.29389681     0.02700
C1107       C  0.69476645  0.19904327  0.36707991     0.09500
C1108       C  0.66537208  0.17796467  0.42885044     0.35400
C1109       C  0.64864041  0.17573501  0.24750360     0.38900
C1110       C  0.70419056  0.21847002  0.36995899    -0.04700
C1111       C  0.72331309  0.22841524  0.37929410     0.02500
C1112       C  0.73303252  0.21891755  0.38700106    -0.04300
C1113       C  0.72330026  0.19935755  0.38568434    -0.00500
C1114       C  0.70440759  0.18955041  0.37482896    -0.03100
C1115       C  0.69419094  0.22819328  0.36258834     0.36200
C1116       C  0.73252963  0.18912957  0.39658409     0.39800
C1117       C  0.73306628  0.24840603  0.37904660     0.38900
C1118       C  0.69492966  0.16961708  0.37060336     0.35900
C1119       C  0.68503002  0.19939276  0.27757580     0.36500
C1120       C  0.62839012  0.15421411  0.39969251     0.39800
N1121       N  0.74085572  0.26436031  0.37864383    -0.38300
N1122       N  0.68615048  0.23588515  0.35660757    -0.39900
N1123       N  0.73986549  0.18097190  0.40533283    -0.37600
N1124       N  0.68736763  0.15373606  0.36712797    -0.40000
N1125       N  0.66898844  0.17832864  0.46535211    -0.39800
N1126       N  0.61696711  0.14517044  0.42453093    -0.37400
N1127       N  0.64573200  0.17522620  0.21051644    -0.38500
N1128       N  0.69657363  0.20831715  0.25288340    -0.40100
C1129       C  0.87499528  0.34024378  0.64307973    -0.05100
C1130       C  0.86891760  0.34244513  0.60178307     0.09100
C1131       C  0.86911991  0.35899602  0.59213133    -0.02400
C1132       C  0.87389787  0.37254268  0.62460055    -0.00700
C1133       C  0.87766180  0.36928865  0.66758795    -0.04300
C1134       C  0.87899839  0.35343189  0.67622628     0.02700
C1135       C  0.85979726  0.32646035  0.57085965     0.09500
C1136       C  0.86342230  0.36168611  0.54943049     0.35400
C1137       C  0.88308253  0.34991846  0.71990471     0.38900
C1138       C  0.84196210  0.31174064  0.58067070    -0.04700
C1139       C  0.83228612  0.29754493  0.55013258     0.02500
C1140       C  0.83979423  0.29846290  0.50815914    -0.04300
C1141       C  0.85812029  0.31269699  0.49926482    -0.00500
C1142       C  0.86814710  0.32648282  0.53081505    -0.03100
C1143       C  0.83318209  0.31159735  0.62168206     0.36200
C1144       C  0.86644902  0.31376668  0.45709131     0.39800
C1145       C  0.81470707  0.28179499  0.56264696     0.38900
C1146       C  0.88688778  0.34102425  0.52173328     0.35900
C1147       C  0.87624322  0.32392436  0.65192873     0.36500
C1148       C  0.87481045  0.38980462  0.61361630     0.39800
N1149       N  0.80083141  0.26927104  0.57356047    -0.38300
N1150       N  0.82621886  0.31156375  0.65433745    -0.39900
N1151       N  0.87315527  0.31465467  0.42348702    -0.37600
N1152       N  0.90184149  0.35265784  0.51457852    -0.40000
N1153       N  0.85889322  0.36386141  0.51539390    -0.39800
N1154       N  0.87565067  0.40355251  0.60411181    -0.37400
N1155       N  0.88625189  0.34707175  0.75480509    -0.38500
N1156       N  0.87725020  0.31089788  0.65887997    -0.40100
C1157       C  0.77582428  0.21376953  0.11017998    -0.05100
C1158       C  0.78794529  0.23217475  0.12299002     0.09100
C1159       C  0.79385723  0.24648613  0.09190228    -0.02400
C1160       C  0.78722057  0.24244819  0.04864873    -0.00700
C1161       C  0.77458801  0.22412758  0.03643007    -0.04300
C1162       C  0.76909332  0.20977243  0.06712233     0.02700
C1163       C  0.79319097  0.23644022  0.17005544     0.09500
C1164       C  0.80648261  0.26537893  0.10470233     0.35400
C1165       C  0.75590223  0.19093690  0.05483933     0.38900
C1166       C  0.80643492  0.23278740  0.18885691    -0.04700
C1167       C  0.80975139  0.23488961  0.23423496     0.02500
C1168       C  0.80026134  0.24120027  0.26070788    -0.04300
C1169       C  0.78755305  0.24552836  0.24168110    -0.00500
C1170       C  0.78382443  0.24289216  0.19664365    -0.03100
C1171       C  0.81656981  0.22681759  0.16142340     0.36200
C1172       C  0.77801248  0.25234877  0.26874179     0.39800
C1173       C  0.82286133  0.23053565  0.25380594     0.38900
C1174       C  0.76994771  0.24632191  0.17776807     0.35900
C1175       C  0.76983021  0.19899514  0.14180336     0.36500
C1176       C  0.79325483  0.25708963  0.01665767     0.39800
N1177       N  0.83326419  0.22702171  0.26961711    -0.38300
N1178       N  0.82468479  0.22211146  0.13942275    -0.39900
N1179       N  0.77046279  0.25781853  0.29039704    -0.37600
N1180       N  0.75885984  0.24900296  0.16260575    -0.40000
N1181       N  0.81650872  0.28047585  0.11493210    -0.39800
N1182       N  0.79803996  0.26867436  0.99087977    -0.37400
N1183       N  0.74534191  0.17592099  0.04512302    -0.38500
N1184       N  0.76514597  0.18725531  0.16711601    -0.40100
C1185       C  0.77094542  0.19697492  0.59544362    -0.05100
C1186       C  0.76322110  0.20394618  0.62571076     0.09100
C1187       C  0.75967725  0.21800609  0.61268254    -0.02400
C1188       C  0.76349413  0.22481593  0.56975620    -0.00700
C1189       C  0.77250679  0.21886978  0.54013917    -0.04300
C1190       C  0.77610360  0.20477381  0.55328181     0.02700
C1191       C  0.75940778  0.19724745  0.67202440     0.09500
C1192       C  0.75248971  0.22586944  0.64395090     0.35400
C1193       C  0.78585586  0.19881586  0.52443681     0.38900
C1194       C  0.77419819  0.20221908  0.70117546    -0.04700
C1195       C  0.77076761  0.19875137  0.74617442     0.02500
C1196       C  0.75256346  0.19115451  0.76290684    -0.04300
C1197       C  0.73764901  0.18512284  0.73327722    -0.00500
C1198       C  0.74108349  0.18784153  0.68801666    -0.03100
C1199       C  0.79308116  0.21169781  0.68515623     0.36200
C1200       C  0.71881565  0.17716474  0.74907131     0.39800
C1201       C  0.78610255  0.20305107  0.77518695     0.38900
C1202       C  0.72577232  0.18173876  0.65782959     0.35900
C1203       C  0.77377872  0.18190427  0.60793503     0.36500
C1204       C  0.75766939  0.23770442  0.55612922     0.39800
N1205       N  0.79832505  0.20644598  0.79828655    -0.38300
N1206       N  0.80813268  0.21920923  0.67234782    -0.39900
N1207       N  0.70375508  0.17084053  0.76139279    -0.37600
N1208       N  0.71359718  0.17698668  0.63370802    -0.40000
N1209       N  0.74678587  0.23211858  0.66894592    -0.39800
N1210       N  0.75300493  0.24796243  0.54537127    -0.37400
N1211       N  0.79373749  0.19412667  0.50156837    -0.38500
N1212       N  0.77605083  0.16988673  0.61792658    -0.40100
C1213       C  0.85986222  0.00802606  0.52375907    -0.05100
C1214       C  0.85532377  0.01821859  0.49495319     0.09100
C1215       C  0.83790605  0.00953799  0.47448578    -0.02400
C1216       C  0.82462964  0.99117064  0.48497683    -0.00700
C1217       C  0.82833585  0.98144035  0.51766851    -0.04300
C1218       C  0.84656454  0.98968716  0.53484513     0.02700
C1219       C  0.86853062  0.03836188  0.48744260     0.09500
C1220       C  0.83336500  0.01982151  0.44378135     0.35400
C1221       C  0.85172751  0.97980127  0.56518850     0.38900
C1222       C  0.87858057  0.04448391  0.44814051    -0.04700
C1223       C  0.88931409  0.06354899  0.43903190     0.02500
C1224       C  0.89009803  0.07669925  0.46937669    -0.04300
C1225       C  0.88129513  0.07044720  0.51039289    -0.00500
C1226       C  0.87031094  0.05140467  0.51899932    -0.03100
C1227       C  0.87735700  0.03105578  0.41646748     0.36200
C1228       C  0.88365356  0.08361083  0.54413517     0.39800
C1229       C  0.89886514  0.06938271  0.39760546     0.38900
C1230       C  0.86025126  0.04521362  0.55982866     0.35900
C1231       C  0.87810623  0.01674728  0.54325684     0.36500
C1232       C  0.80720082  0.98239366  0.46158179     0.39800
N1233       N  0.90652544  0.07378613  0.36452596    -0.38300
N1234       N  0.87629334  0.02030581  0.39121745    -0.39900
N1235       N  0.88561261  0.09411774  0.57105566    -0.37600
N1236       N  0.85221502  0.04030672  0.59237685    -0.40000
N1237       N  0.82975567  0.02804187  0.41935514    -0.39800
N1238       N  0.79333485  0.97542890  0.44282766    -0.37400
N1239       N  0.85598219  0.97197973  0.58927085    -0.38500
N1240       N  0.89263629  0.02378854  0.55893222    -0.40100
C1241       C  0.87608647  0.19740660  0.46997969    -0.05100
C1242       C  0.87342408  0.20156837  0.42697842     0.09100
C1243       C  0.88056773  0.19632034  0.39155254    -0.02400
C1244       C  0.88931662  0.18594145  0.39892985    -0.00700
C1245       C  0.89133866  0.18119653  0.44182675    -0.04300
C1246       C  0.88539282  0.18757512  0.47742106     0.02700
C1247       C  0.86203855  0.21041895  0.41893749     0.09500
C1248       C  0.87867205  0.20143210  0.34754790     0.35400
C1249       C  0.88863549  0.18381949  0.52167054     0.38900
C1250       C  0.86951374  0.22949390  0.42559036    -0.04700
C1251       C  0.85826734  0.23750744  0.42082979     0.02500
C1252       C  0.83952134  0.22648605  0.40824187    -0.04300
C1253       C  0.83249175  0.20754436  0.39886120    -0.00500
C1254       C  0.84356533  0.19950147  0.40527790    -0.03100
C1255       C  0.88883217  0.24083332  0.43726278     0.36200
C1256       C  0.81411585  0.19637688  0.38067271     0.39800
C1257       C  0.86599040  0.25698758  0.42989866     0.38900
C1258       C  0.83591177  0.17987595  0.39812155     0.35900
C1259       C  0.86867639  0.20269403  0.50643740     0.36500
C1260       C  0.89644762  0.18030663  0.36253165     0.39800
N1261       N  0.87222874  0.27254883  0.43703654    -0.38300
N1262       N  0.90427298  0.24983682  0.44637870    -0.39900
N1263       N  0.79953422  0.18749473  0.36584158    -0.37600
N1264       N  0.82986653  0.16424056  0.39246619    -0.40000
N1265       N  0.87715642  0.20556842  0.31249113    -0.39800
N1266       N  0.90221904  0.17583988  0.33362042    -0.37400
N1267       N  0.89142232  0.18108029  0.55702066    -0.38500
N1268       N  0.86270617  0.20686679  0.53548241    -0.40100
C1269       C  0.87685717  0.13322603  0.65217856    -0.05100
C1270       C  0.88910147  0.13280497  0.68286669     0.09100
C1271       C  0.90723233  0.13783289  0.67024443    -0.02400
C1272       C  0.91301856  0.14285144  0.62669119    -0.00700
C1273       C  0.90032266  0.14189491  0.59474380    -0.04300
C1274       C  0.88229907  0.13754398  0.60825182     0.02700
C1275       C  0.88244229  0.12551977  0.72767958     0.09500
C1276       C  0.91969213  0.13705655  0.70190043     0.35400
C1277       C  0.86923827  0.13765177  0.57735098     0.38900
C1278       C  0.87305396  0.10635426  0.73472748    -0.04700
C1279       C  0.86821134  0.09925672  0.77727025     0.02500
C1280       C  0.87250277  0.11131707  0.81337414    -0.04300
C1281       C  0.88084376  0.13054283  0.80572645    -0.00500
C1282       C  0.88593894  0.13759002  0.76299282    -0.03100
C1283       C  0.86844615  0.09389020  0.69793293     0.36200
C1284       C  0.88479546  0.14322058  0.84169716     0.39800
C1285       C  0.85861097  0.07942837  0.78321545     0.38900
C1286       C  0.89493913  0.15727929  0.75518775     0.35900
C1287       C  0.85844181  0.12873357  0.66584632     0.36500
C1288       C  0.93197736  0.14865313  0.61515836     0.39800
N1289       N  0.85108370  0.06356451  0.78684370    -0.38300
N1290       N  0.86463928  0.08394432  0.66861878    -0.39900
N1291       N  0.88786235  0.15336591  0.87028651    -0.37600
N1292       N  0.90211042  0.17298311  0.74882695    -0.40000
N1293       N  0.92952951  0.13627802  0.72716110    -0.39800
N1294       N  0.94723454  0.15364168  0.60645623    -0.37400
N1295       N  0.85874526  0.13768535  0.55288035    -0.38500
N1296       N  0.84377853  0.12515040  0.67691056    -0.40100
C1297       C  0.86167989  0.11542089  0.26078654    -0.05100
C1298       C  0.86837183  0.10829431  0.22858700     0.09100
C1299       C  0.88304505  0.10521920  0.23815174    -0.02400
C1300       C  0.89110374  0.10926109  0.27984732    -0.00700
C1301       C  0.88482792  0.11693461  0.31243071    -0.04300
C1302       C  0.87001280  0.12002815  0.30232656     0.02700
C1303       C  0.86072619  0.10479772  0.18348762     0.09500
C1304       C  0.89009219  0.09815234  0.20449409     0.35400
C1305       C  0.86373456  0.12872664  0.33353957     0.38900
C1306       C  0.86695500  0.11952449  0.15380180    -0.04700
C1307       C  0.86223841  0.11603151  0.10938632     0.02500
C1308       C  0.85145277  0.09763368  0.09410549    -0.04300
C1309       C  0.84413422  0.08298234  0.12491497    -0.00500
C1310       C  0.84878279  0.08662985  0.16936478    -0.03100
C1311       C  0.87877564  0.13828730  0.16892087     0.36200
C1312       C  0.83249418  0.06397879  0.11135436     0.39800
C1313       C  0.86854396  0.13152221  0.07972603     0.38900
C1314       C  0.84183206  0.07160302  0.20058836     0.35900
C1315       C  0.84630529  0.11819616  0.25077550     0.36500
C1316       C  0.90592741  0.10546257  0.28841966     0.39800
N1317       N  0.87364393  0.14391580  0.05617787    -0.38300
N1318       N  0.88815859  0.15321503  0.18120435    -0.39900
N1319       N  0.82310854  0.04874907  0.10119171    -0.37600
N1320       N  0.83632757  0.05962471  0.22545977    -0.40000
N1321       N  0.89568565  0.09254324  0.17761037    -0.39800
N1322       N  0.91790610  0.10260635  0.29452008    -0.37400
N1323       N  0.85865806  0.13570228  0.35814595    -0.38500
N1324       N  0.83403421  0.12037625  0.24267350    -0.40100
C1325       C  0.02008085  0.21042742  0.26143522    -0.05100
C1326       C  0.00660254  0.21568057  0.25707889     0.09100
C1327       C  0.00721705  0.22620810  0.22070118    -0.02400
C1328       C  0.01935243  0.22897932  0.18560352    -0.00700
C1329       C  0.03125592  0.22145793  0.18734687    -0.04300
C1330       C  0.03272756  0.21382937  0.22745855     0.02700
C1331       C  0.99039375  0.20769691  0.28751918     0.09500
C1332       C  0.99493165  0.23369801  0.21910489     0.35400
C1333       C  0.04719461  0.20934558  0.23436970     0.38900
C1334       C  0.99211340  0.21424739  0.33057361    -0.04700
C1335       C  0.97834833  0.20379032  0.36187759     0.02500
C1336       C  0.96280851  0.18662713  0.35007328    -0.04300
C1337       C  0.96011764  0.18141329  0.30561316    -0.00500
C1338       C  0.97390836  0.19182421  0.27459767    -0.03100
C1339       C  0.00843841  0.23136783  0.34289839     0.36200
C1340       C  0.94318093  0.16525118  0.29154015     0.39800
C1341       C  0.98099904  0.21009347  0.40671128     0.38900
C1342       C  0.97154711  0.18570310  0.22958464     0.35900
C1343       C  0.02040933  0.20062173  0.30004761     0.36500
C1344       C  0.01900887  0.23909795  0.14769937     0.39800
N1345       N  0.98315522  0.21515625  0.44247161    -0.38300
N1346       N  0.02145348  0.24505840  0.35265881    -0.39900
N1347       N  0.92969996  0.15246174  0.27981340    -0.37600
N1348       N  0.96973182  0.18093374  0.19362027    -0.40000
N1349       N  0.98523087  0.23980026  0.21812397    -0.39800
N1350       N  0.01872631  0.24731263  0.11770364    -0.37400
N1351       N  0.05861843  0.20568390  0.24047260    -0.38500
N1352       N  0.02094345  0.19280035  0.33053565    -0.40100
C1353       C  0.82020567  0.95374565  0.00142799    -0.05100
C1354       C  0.82862777  0.96674330  0.03526550     0.09100
C1355       C  0.83045012  0.96074552  0.07691151    -0.02400
C1356       C  0.82304360  0.94175009  0.08537481    -0.00700
C1357       C  0.81368338  0.92857190  0.05210357    -0.04300
C1358       C  0.81275435  0.93475453  0.00975556     0.02700
C1359       C  0.83385140  0.98646340  0.02796013     0.09500
C1360       C  0.83928237  0.97414784  0.11151060     0.35400
C1361       C  0.80392656  0.92156516  0.97469314     0.38900
C1362       C  0.82099120  0.99212212  0.03765273    -0.04700
C1363       C  0.82459677  0.00987683  0.02577697     0.02500
C1364       C  0.84166000  0.02264055  0.00564164    -0.04300
C1365       C  0.85510184  0.01722968  0.99902662    -0.00500
C1366       C  0.85102764  0.99913301  0.00939715    -0.03100
C1367       C  0.80363673  0.97931015  0.05863989     0.36200
C1368       C  0.87314248  0.03012087  0.98121187     0.39800
C1369       C  0.80984747  0.01408220  0.03090117     0.38900
C1370       C  0.86435432  0.99334016  0.00012753     0.35900
C1371       C  0.81863858  0.95989777  0.95829053     0.36500
C1372       C  0.82397450  0.93577631  0.12918016     0.39800
N1373       N  0.79794330  0.01724051  0.03463496    -0.38300
N1374       N  0.78985964  0.96912951  0.07560592    -0.39900
N1375       N  0.88752931  0.04036264  0.96691326    -0.37600
N1376       N  0.87493839  0.98866355  0.99261161    -0.40000
N1377       N  0.84629559  0.98489745  0.13902722    -0.39800
N1378       N  0.82469349  0.93102630  0.16415866    -0.37400
N1379       N  0.79686211  0.91109586  0.94666209    -0.38500
N1380       N  0.81738830  0.96476045  0.92383517    -0.40100
C1381       C  0.76088512  0.86779527  0.75887753    -0.05100
C1382       C  0.76373788  0.87913787  0.79535582     0.09100
C1383       C  0.76867067  0.89771418  0.78929369    -0.02400
C1384       C  0.77108796  0.90505158  0.74688829    -0.00700
C1385       C  0.76888893  0.89390515  0.71007858    -0.04300
C1386       C  0.76359428  0.87514912  0.71638470     0.02700
C1387       C  0.76296984  0.87199625  0.84038311     0.09500
C1388       C  0.77175652  0.90941429  0.82694001     0.35400
C1389       C  0.76199631  0.86362742  0.67943577     0.38900
C1390       C  0.77878903  0.87253469  0.85799955    -0.04700
C1391       C  0.77889079  0.86758001  0.90181948     0.02500
C1392       C  0.76303113  0.86179096  0.92815299    -0.04300
C1393       C  0.74689447  0.86041776  0.90983565    -0.00500
C1394       C  0.74692678  0.86566596  0.86613460    -0.03100
C1395       C  0.79519462  0.87880962  0.83125461     0.36200
C1396       C  0.73021504  0.85343396  0.93588799     0.39800
C1397       C  0.79576884  0.86968319  0.92044360     0.38900
C1398       C  0.73060974  0.86492736  0.84780991     0.35900
C1399       C  0.75564253  0.84864553  0.76528972     0.36500
C1400       C  0.77577913  0.92409700  0.74147696     0.39800
N1401       N  0.80933997  0.87157920  0.93513741    -0.38300
N1402       N  0.80823003  0.88379369  0.80976192    -0.39900
N1403       N  0.71691476  0.84776487  0.95672300    -0.37600
N1404       N  0.71762116  0.86440741  0.83317223    -0.40000
N1405       N  0.77426361  0.91872437  0.85700619    -0.39800
N1406       N  0.77959074  0.93932694  0.73766160    -0.37400
N1407       N  0.76081070  0.85447692  0.64995376    -0.38500
N1408       N  0.75146858  0.83337400  0.77049757    -0.40100
C1409       C  0.78210775  0.91532658  0.36133653    -0.05100
C1410       C  0.76607688  0.90187703  0.33984069     0.09100
C1411       C  0.74903125  0.89304157  0.36222308    -0.02400
C1412       C  0.74816124  0.89705005  0.40654084    -0.00700
C1413       C  0.76425896  0.91029460  0.42829068    -0.04300
C1414       C  0.78120533  0.91959343  0.40538807     0.02700
C1415       C  0.76746743  0.89617838  0.29445630     0.09500
C1416       C  0.73243523  0.87978309  0.33952557     0.35400
C1417       C  0.79797703  0.93274212  0.42778533     0.38900
C1418       C  0.76922448  0.88049483  0.28775320    -0.04700
C1419       C  0.77143004  0.87548176  0.24527796     0.02500
C1420       C  0.77238040  0.88640823  0.20914669    -0.04300
C1421       C  0.77028686  0.90197098  0.21593143    -0.00500
C1422       C  0.76771860  0.90674015  0.25846591    -0.03100
C1423       C  0.76913259  0.86971333  0.32483546     0.36200
C1424       C  0.77156619  0.91357916  0.17950522     0.39800
C1425       C  0.77232839  0.85881357  0.23890620     0.38900
C1426       C  0.76561623  0.92269490  0.26545498     0.35900
C1427       C  0.79963912  0.92440129  0.33832108     0.36500
C1428       C  0.73072857  0.88753186  0.42984583     0.39800
N1429       N  0.77299800  0.84547687  0.23419887    -0.38300
N1430       N  0.76911225  0.86115931  0.35442916    -0.39900
N1431       N  0.77261074  0.92284482  0.15044196    -0.37600
N1432       N  0.76393408  0.93541638  0.27116230    -0.40000
N1433       N  0.71920741  0.86928030  0.32121847    -0.39800
N1434       N  0.71686617  0.87992302  0.44862137    -0.37400
N1435       N  0.81143771  0.94314496  0.44546768    -0.38500
N1436       N  0.81359633  0.93162486  0.31986422    -0.40100
C1437       C  0.51242084  0.81144179  0.14649240    -0.05100
C1438       C  0.49295756  0.80129440  0.14814751     0.09100
C1439       C  0.48357223  0.78207486  0.14129015    -0.02400
C1440       C  0.49364418  0.77294436  0.13369505    -0.00700
C1441       C  0.51321992  0.78315543  0.13094863    -0.04300
C1442       C  0.52248290  0.80257536  0.13687717     0.02700
C1443       C  0.48272166  0.81113568  0.15902889     0.09500
C1444       C  0.46353279  0.77173656  0.14212578     0.35400
C1445       C  0.54239216  0.81379329  0.13173737     0.38900
C1446       C  0.48276764  0.82401755  0.12933683    -0.04700
C1447       C  0.47779615  0.83692542  0.14352856     0.02500
C1448       C  0.47203282  0.83648205  0.18701780    -0.04300
C1449       C  0.46995007  0.82220358  0.21519499    -0.00500
C1450       C  0.47558761  0.80976261  0.20142449    -0.03100
C1451       C  0.48890969  0.82457556  0.08482928     0.36200
C1452       C  0.46353616  0.82122646  0.25965898     0.39800
C1453       C  0.47908029  0.85094858  0.11371371     0.38900
C1454       C  0.47525968  0.79638466  0.23191406     0.35900
C1455       C  0.52218186  0.83115611  0.15502618     0.36500
C1456       C  0.48379104  0.75299314  0.13039211     0.39800
N1457       N  0.48018182  0.86216328  0.08993806    -0.38300
N1458       N  0.49385342  0.82501762  0.04936729    -0.39900
N1459       N  0.45841546  0.82045813  0.29508342    -0.37600
N1460       N  0.47497314  0.78570985  0.25624149    -0.40000
N1461       N  0.44754428  0.76353800  0.14284142    -0.39800
N1462       N  0.47588751  0.73706724  0.12801570    -0.37400
N1463       N  0.55823913  0.82282345  0.12752091    -0.38500
N1464       N  0.52992935  0.84685780  0.16171369    -0.40100
C1465       C  0.64336134  0.77875060  0.13114459    -0.05100
C1466       C  0.65319049  0.79238731  0.09945679     0.09100
C1467       C  0.64363029  0.79810333  0.07164379    -0.02400
C1468       C  0.62436516  0.79054460  0.07604440    -0.00700
C1469       C  0.61438368  0.77706919  0.10850674    -0.04300
C1470       C  0.62408078  0.77112621  0.13581599     0.02700
C1471       C  0.67382466  0.80157047  0.09675361     0.09500
C1472       C  0.65375513  0.81201274  0.03870051     0.35400
C1473       C  0.61451601  0.75775889  0.17015661     0.38900
C1474       C  0.68231197  0.79617588  0.06484592    -0.04700
C1475       C  0.70169621  0.80626494  0.05911350     0.02500
C1476       C  0.71282056  0.82170593  0.08604522    -0.04300
C1477       C  0.70424648  0.82597240  0.12058071    -0.00500
C1478       C  0.68485216  0.81621640  0.12518120    -0.03100
C1479       C  0.67096581  0.78035694  0.03745518     0.36200
C1480       C  0.71530530  0.84017779  0.15217603     0.39800
C1481       C  0.70991789  0.80103507  0.02433488     0.38900
C1482       C  0.67612238  0.82150942  0.15865576     0.35900
C1483       C  0.65323929  0.77278920  0.15942141     0.36500
C1484       C  0.61493571  0.79665655  0.04664593     0.39800
N1485       N  0.71642956  0.79677567  0.99663727    -0.38300
N1486       N  0.66188313  0.76768327  0.01578031    -0.39900
N1487       N  0.72407256  0.85143678  0.17752382    -0.37600
N1488       N  0.66909330  0.82569722  0.18523631    -0.40000
N1489       N  0.66184956  0.82307107  0.01239073    -0.39800
N1490       N  0.60749472  0.80166500  0.02335387    -0.37400
N1491       N  0.60693777  0.74710827  0.19759909    -0.38500
N1492       N  0.66116806  0.76808446  0.18195439    -0.40100
C1493       C  0.57462568  0.77389883  0.32764224    -0.05100
C1494       C  0.55736643  0.76750817  0.34815384     0.09100
C1495       C  0.54092700  0.75681103  0.32441999    -0.02400
C1496       C  0.54174637  0.75347111  0.27964453    -0.00700
C1497       C  0.55903667  0.76080947  0.25848601    -0.04300
C1498       C  0.57547213  0.77068640  0.28277367     0.02700
C1499       C  0.55644743  0.77379685  0.39320398     0.09500
C1500       C  0.52317955  0.74977390  0.34589904     0.35400
C1501       C  0.59323876  0.77779459  0.26141864     0.38900
C1502       C  0.55618519  0.79036776  0.39882863    -0.04700
C1503       C  0.55433754  0.79606095  0.44081713     0.02500
C1504       C  0.55268072  0.78516447  0.47748644    -0.04300
C1505       C  0.55321384  0.76869885  0.47192438    -0.00500
C1506       C  0.55526949  0.76312509  0.42985802    -0.03100
C1507       C  0.55769145  0.80148950  0.36114947     0.36200
C1508       C  0.55065851  0.75700807  0.50921185     0.39800
C1509       C  0.55430827  0.81323572  0.44624509     0.38900
C1510       C  0.55602723  0.74635952  0.42415469     0.35900
C1511       C  0.59147273  0.78411073  0.35268282     0.36500
C1512       C  0.52478900  0.74334236  0.25484815     0.39800
N1513       N  0.55430528  0.82694990  0.45035816    -0.38300
N1514       N  0.55891458  0.81031126  0.33099226    -0.39900
N1515       N  0.54848329  0.74769192  0.53904743    -0.37600
N1516       N  0.55672341  0.73301851  0.41969055    -0.40000
N1517       N  0.50904860  0.74415998  0.36316151    -0.39800
N1518       N  0.51125478  0.73531168  0.23509228    -0.37400
N1519       N  0.60743769  0.78352022  0.24443395    -0.38500
N1520       N  0.60486672  0.79217557  0.37289883    -0.40100
C1521       C  0.58057485  0.81649686  0.82287022    -0.05100
C1522       C  0.56415376  0.80434889  0.84542159     0.09100
C1523       C  0.54705873  0.79648596  0.82331463    -0.02400
C1524       C  0.54634406  0.80089220  0.77926982    -0.00700
C1525       C  0.56278267  0.81268764  0.75643923    -0.04300
C1526       C  0.57991853  0.82041607  0.77827322     0.02700
C1527       C  0.56458004  0.79960682  0.89245668     0.09500
C1528       C  0.53022271  0.78343725  0.84572617     0.35400
C1529       C  0.59684887  0.83232691  0.75473759     0.38900
C1530       C  0.55859968  0.80730772  0.92516232    -0.04700
C1531       C  0.55594994  0.80061827  0.96836677     0.02500
C1532       C  0.55978151  0.78653800  0.97940368    -0.04300
C1533       C  0.56716480  0.77988241  0.94744567    -0.00500
C1534       C  0.56927671  0.78616959  0.90397238    -0.03100
C1535       C  0.55455799  0.82169708  0.91382341     0.36200
C1536       C  0.57247630  0.76644375  0.95938143     0.39800
C1537       C  0.54817153  0.80741722  0.00067994     0.38900
C1538       C  0.57552711  0.77824455  0.87071225     0.35900
C1539       C  0.59810405  0.82493110  0.84562603     0.36500
C1540       C  0.52870638  0.79275378  0.75688162     0.39800
N1541       N  0.54181078  0.81282997  0.02611434    -0.38300
N1542       N  0.55136480  0.83318194  0.90457337    -0.39900
N1543       N  0.57679328  0.75580831  0.96910164    -0.37600
N1544       N  0.58047664  0.77188315  0.84416322    -0.40000
N1545       N  0.51685232  0.77298010  0.86372364    -0.39800
N1546       N  0.51467829  0.78623702  0.73888077    -0.37400
N1547       N  0.61035681  0.84177803  0.73587836    -0.38500
N1548       N  0.61208391  0.83167894  0.86387055    -0.40100
C1549       C  0.53807349  0.66578826  0.86964449    -0.05100
C1550       C  0.53017281  0.66446183  0.91106921     0.09100
C1551       C  0.51336908  0.64855979  0.92217232    -0.02400
C1552       C  0.50383498  0.63462102  0.89105598    -0.00700
C1553       C  0.51095628  0.63654211  0.84821384    -0.04300
C1554       C  0.52838917  0.65202514  0.83799468     0.02700
C1555       C  0.53767765  0.68080253  0.94068018     0.09500
C1556       C  0.50524550  0.64710171  0.96492751     0.35400
C1557       C  0.53553450  0.65485128  0.79382689     0.38900
C1558       C  0.53390565  0.69504440  0.93140185    -0.04700
C1559       C  0.53703180  0.70841202  0.96317075     0.02500
C1560       C  0.54380729  0.70754158  0.00496503    -0.04300
C1561       C  0.54893777  0.69403605  0.01285268    -0.00500
C1562       C  0.54595461  0.68079817  0.98062186    -0.03100
C1563       C  0.52580927  0.69534767  0.88979357     0.36200
C1564       C  0.55602465  0.69277227  0.05503431     0.39800
C1565       C  0.53274000  0.72273414  0.95265735     0.38900
C1566       C  0.55049788  0.66653024  0.98925332     0.35900
C1567       C  0.55568225  0.68189077  0.85892245     0.36500
C1568       C  0.48616149  0.61881728  0.90294496     0.39800
N1569       N  0.52911673  0.73395617  0.94376728    -0.38300
N1570       N  0.51938987  0.69557134  0.85658892    -0.39900
N1571       N  0.56165432  0.69171451  0.08868220    -0.37600
N1572       N  0.55405808  0.65510556  0.99615540    -0.40000
N1573       N  0.49879709  0.64597794  0.99899385    -0.39800
N1574       N  0.47198391  0.60651580  0.91308326    -0.37400
N1575       N  0.54113366  0.65721335  0.75848668    -0.38500
N1576       N  0.56970875  0.69476845  0.85039330    -0.40100
C1577       C  0.47682760  0.67775189  0.70024526    -0.05100
C1578       C  0.49079052  0.68682874  0.66873653     0.09100
C1579       C  0.49895390  0.67751455  0.64894638    -0.02400
C1580       C  0.49383321  0.65946013  0.66197927    -0.00700
C1581       C  0.48060538  0.65054881  0.69589502    -0.04300
C1582       C  0.47175080  0.65973874  0.71398550     0.02700
C1583       C  0.49812545  0.70678709  0.65895974     0.09500
C1584       C  0.51324386  0.68687806  0.61619613     0.35400
C1585       C  0.45816950  0.65132562  0.74852461     0.38900
C1586       C  0.51118549  0.72027296  0.68721010    -0.04700
C1587       C  0.51900261  0.73914401  0.67734091     0.02500
C1588       C  0.51435404  0.74473855  0.63802527    -0.04300
C1589       C  0.50126298  0.73106850  0.60959153    -0.00500
C1590       C  0.49297124  0.71220705  0.62050878    -0.03100
C1591       C  0.51713185  0.71463572  0.72573033     0.36200
C1592       C  0.49719373  0.73617643  0.56763461     0.39800
C1593       C  0.53194919  0.75268545  0.70786087     0.38900
C1594       C  0.47951121  0.69825882  0.59156111     0.35900
C1595       C  0.46816735  0.68732881  0.71962798     0.36500
C1596       C  0.50256576  0.65036097  0.64040033     0.39800
N1597       N  0.54234848  0.76331417  0.73235204    -0.38300
N1598       N  0.52195783  0.71009289  0.75619917    -0.39900
N1599       N  0.49403867  0.74020436  0.53400759    -0.37600
N1600       N  0.46878766  0.68709395  0.56852313    -0.40000
N1601       N  0.52464415  0.69436422  0.59015071    -0.39800
N1602       N  0.50964720  0.64323166  0.62322899    -0.37400
N1603       N  0.44733111  0.64471696  0.77612032    -0.38500
N1604       N  0.46133799  0.69504902  0.73503646    -0.40100
C1605       C  0.54383878  0.52809994  0.71870372    -0.05100
C1606       C  0.54593325  0.54105912  0.75081592     0.09100
C1607       C  0.55806446  0.54456304  0.78606523    -0.02400
C1608       C  0.56659709  0.53383641  0.79164531    -0.00700
C1609       C  0.56343431  0.51988340  0.76110605    -0.04300
C1610       C  0.55280728  0.51778360  0.72342492     0.02700
C1611       C  0.53429617  0.54997935  0.74912383     0.09500
C1612       C  0.56143762  0.55901934  0.81697667     0.35400
C1613       C  0.55119294  0.50507690  0.68921709     0.38900
C1614       C  0.51885187  0.54371481  0.77700788    -0.04700
C1615       C  0.50735710  0.55151088  0.77465431     0.02500
C1616       C  0.51077425  0.56517448  0.74301969    -0.04300
C1617       C  0.52617489  0.57121511  0.71466587    -0.00500
C1618       C  0.53814525  0.56401921  0.71864886    -0.03100
C1619       C  0.51463458  0.52897575  0.80778503     0.36200
C1620       C  0.52923617  0.58408265  0.67966576     0.39800
C1621       C  0.49221162  0.54557011  0.80542296     0.38900
C1622       C  0.55444314  0.57100316  0.69123918     0.35900
C1623       C  0.53202735  0.52501996  0.68133984     0.36500
C1624       C  0.57775491  0.53654915  0.83006011     0.39800
N1625       N  0.48015332  0.54075674  0.83002953    -0.38300
N1626       N  0.51130507  0.51720730  0.83223811    -0.39900
N1627       N  0.53157586  0.59422832  0.65155909    -0.37600
N1628       N  0.56748391  0.57661719  0.66950219    -0.40000
N1629       N  0.56414526  0.57063557  0.84139261    -0.39800
N1630       N  0.58663253  0.53874313  0.86078299    -0.37400
N1631       N  0.55000347  0.49501900  0.66187795    -0.38500
N1632       N  0.52266576  0.52263485  0.65146099    -0.40100
C1633       C  0.66393866  0.53141627  0.52545064    -0.05100
C1634       C  0.67102904  0.53945299  0.56649922     0.09100
C1635       C  0.69014237  0.55183893  0.57158767    -0.02400
C1636       C  0.70236008  0.55457388  0.53705858    -0.00700
C1637       C  0.69533461  0.54543294  0.49710917    -0.04300
C1638       C  0.67611808  0.53458027  0.49061257     0.02700
C1639       C  0.65907381  0.53189237  0.60575893     0.09500
C1640       C  0.69724702  0.56073182  0.61329953     0.35400
C1641       C  0.66902564  0.52592676  0.44864118     0.38900
C1642       C  0.66070184  0.51884452  0.63135697    -0.04700
C1643       C  0.64858364  0.51022384  0.66632600     0.02500
C1644       C  0.63404156  0.51381242  0.67465624    -0.04300
C1645       C  0.63284968  0.52744657  0.65004985    -0.00500
C1646       C  0.64552451  0.53661580  0.61588152    -0.03100
C1647       C  0.67451286  0.51377531  0.62073686     0.36200
C1648       C  0.61811908  0.53141552  0.65828950     0.39800
C1649       C  0.65139886  0.49783387  0.69400854     0.38900
C1650       C  0.64443690  0.55059217  0.59044645     0.35900
C1651       C  0.64426723  0.51886840  0.51998063     0.36500
C1652       C  0.72216340  0.56586227  0.54336867     0.39800
N1653       N  0.65392749  0.48806327  0.71574556    -0.38300
N1654       N  0.68547803  0.50971020  0.61222149    -0.39900
N1655       N  0.60634767  0.53455686  0.66484230    -0.37600
N1656       N  0.64361966  0.56177247  0.57010650    -0.40000
N1657       N  0.70285606  0.56777042  0.64666371    -0.39800
N1658       N  0.73796421  0.57479832  0.54842532    -0.37400
N1659       N  0.66356005  0.51916985  0.41496134    -0.38500
N1660       N  0.62857770  0.50885586  0.51570607    -0.40100
C1661       C  0.79714371  0.77813488  0.27683835    -0.05100
C1662       C  0.79618485  0.79445328  0.27539795     0.09100
C1663       C  0.80262270  0.80674778  0.31097304    -0.02400
C1664       C  0.81133038  0.80353073  0.34624132    -0.00700
C1665       C  0.81341634  0.78782887  0.34653724    -0.04300
C1666       C  0.80567962  0.77475466  0.31254980     0.02700
C1667       C  0.79182646  0.80075338  0.23392543     0.09500
C1668       C  0.80130901  0.82336786  0.30989316     0.35400
C1669       C  0.80800587  0.75874649  0.31230755     0.38900
C1670       C  0.77415354  0.79841691  0.22639788    -0.04700
C1671       C  0.77150380  0.80817860  0.19225629     0.02500
C1672       C  0.78669697  0.82059840  0.16623681    -0.04300
C1673       C  0.80395729  0.82158951  0.17173877    -0.00500
C1674       C  0.80647750  0.81169129  0.20532347    -0.03100
C1675       C  0.75894789  0.78651426  0.25485664     0.36200
C1676       C  0.81930664  0.83283561  0.14296098     0.39800
C1677       C  0.75343629  0.80619615  0.18563152     0.38900
C1678       C  0.82448813  0.81345859  0.21182654     0.35900
C1679       C  0.79028338  0.76541396  0.24044734     0.36500
C1680       C  0.81874908  0.81681200  0.38151398     0.39800
N1681       N  0.73902333  0.80463186  0.18034167    -0.38300
N1682       N  0.74681932  0.77697166  0.27757320    -0.39900
N1683       N  0.83175152  0.84172653  0.12045705    -0.37600
N1684       N  0.83885895  0.81491134  0.21692615    -0.40000
N1685       N  0.80027599  0.83661449  0.30883794    -0.39800
N1686       N  0.82469945  0.82756892  0.40929246    -0.37400
N1687       N  0.81009706  0.74611505  0.31172235    -0.38500
N1688       N  0.78481812  0.75526123  0.21137067    -0.40100
C1689       C  0.78527733  0.68611299  0.40869759    -0.05100
C1690       C  0.79152892  0.67450414  0.42535977     0.09100
C1691       C  0.80765896  0.68217454  0.45108989    -0.02400
C1692       C  0.81813213  0.70139171  0.45773893    -0.00700
C1693       C  0.81234391  0.71320602  0.43962918    -0.04300
C1694       C  0.79541621  0.70534962  0.41664339     0.02700
C1695       C  0.78180788  0.65429461  0.41450760     0.09500
C1696       C  0.81354602  0.67019298  0.47052255     0.35400
C1697       C  0.78855216  0.71700740  0.40041097     0.38900
C1698       C  0.78981443  0.64766777  0.38413559    -0.04700
C1699       C  0.78207748  0.62854279  0.37741909     0.02500
C1700       C  0.76622239  0.61583203  0.40097300    -0.04300
C1701       C  0.75759186  0.62246418  0.42953693    -0.00500
C1702       C  0.76543182  0.64163597  0.43648389    -0.03100
C1703       C  0.80619500  0.66061494  0.36010180     0.36200
C1704       C  0.74096394  0.60955376  0.45281651     0.39800
C1705       C  0.79018378  0.62193243  0.34539936     0.38900
C1706       C  0.75691641  0.64833695  0.46704413     0.35900
C1707       C  0.76869014  0.67829442  0.38231399     0.36500
C1708       C  0.83475361  0.70894550  0.48409356     0.39800
N1709       N  0.79655440  0.61663357  0.31968605    -0.38300
N1710       N  0.81928259  0.67099312  0.34107373    -0.39900
N1711       N  0.72765069  0.59926681  0.47126481    -0.37600
N1712       N  0.75007346  0.65368650  0.49131392    -0.40000
N1713       N  0.81816945  0.66058033  0.48597951    -0.39800
N1714       N  0.84801876  0.71497265  0.50504193    -0.37400
N1715       N  0.78284787  0.72619337  0.38790899    -0.38500
N1716       N  0.75546210  0.67202209  0.36119667    -0.40100
C1717       C  0.83083113  0.87942565  0.57293950    -0.05100
C1718       C  0.82683727  0.86949756  0.53345925     0.09100
C1719       C  0.81531496  0.87124094  0.50258487    -0.02400
C1720       C  0.80727515  0.88222249  0.51171994    -0.00700
C1721       C  0.81051311  0.89151180  0.55217734    -0.04300
C1722       C  0.82273561  0.89037105  0.58233913     0.02700
C1723       C  0.83361720  0.85614449  0.52539875     0.09500
C1724       C  0.81130913  0.86128635  0.46167496     0.35400
C1725       C  0.82628145  0.89963464  0.62413999     0.38900
C1726       C  0.82332398  0.83792167  0.54093296    -0.04700
C1727       C  0.82844315  0.82469940  0.52994183     0.02500
C1728       C  0.84358367  0.82928260  0.50127645    -0.04300
C1729       C  0.85468496  0.84810207  0.48845284    -0.00500
C1730       C  0.84976155  0.86137628  0.50087818    -0.03100
C1731       C  0.80710043  0.83269262  0.56768187     0.36200
C1732       C  0.87083461  0.85399558  0.46104987     0.39800
C1733       C  0.81801953  0.80642222  0.54889047     0.38900
C1734       C  0.86119120  0.88050126  0.48795955     0.35900
C1735       C  0.84289498  0.87791457  0.60444341     0.36500
C1736       C  0.79574216  0.88402318  0.47909535     0.39800
N1737       N  0.80966328  0.79188383  0.56418650    -0.38300
N1738       N  0.79417084  0.82861740  0.58894370    -0.39900
N1739       N  0.88375090  0.85882645  0.43919457    -0.37600
N1740       N  0.87035975  0.89579399  0.47797740    -0.40000
N1741       N  0.80803097  0.85336237  0.42899918    -0.39800
N1742       N  0.78654831  0.88541510  0.45300089    -0.37400
N1743       N  0.82911615  0.90701909  0.65749854    -0.38500
N1744       N  0.85250984  0.87667111  0.62956558    -0.40100
C1745       C  0.87087078  0.82690711  0.01959785    -0.05100
C1746       C  0.86947458  0.83852010  0.98842754     0.09100
C1747       C  0.87906795  0.84188612  0.94856663    -0.02400
C1748       C  0.88845627  0.83230504  0.93806500    -0.00700
C1749       C  0.88862224  0.81946173  0.96792519    -0.04300
C1750       C  0.88053234  0.81756903  0.00959967     0.02700
C1751       C  0.85636755  0.84560373  0.99584484     0.09500
C1752       C  0.87879881  0.85489301  0.91786855     0.35400
C1753       C  0.88219848  0.80606977  0.04248627     0.38900
C1754       C  0.86078003  0.86026864  0.02485467    -0.04700
C1755       C  0.84738605  0.86519426  0.03590447     0.02500
C1756       C  0.82925311  0.85536422  0.01790391    -0.04300
C1757       C  0.82567621  0.84193008  0.98525021    -0.00500
C1758       C  0.83903054  0.83692582  0.97494193    -0.03100
C1759       C  0.87902930  0.86995566  0.04430497     0.36200
C1760       C  0.80827935  0.83312221  0.96177310     0.39800
C1761       C  0.85222035  0.87967314  0.06787480     0.38900
C1762       C  0.83471171  0.82232087  0.94362306     0.35900
C1763       C  0.86190735  0.82414198  0.06166909     0.36500
C1764       C  0.89699136  0.83501201  0.89545202     0.39800
N1765       N  0.85612965  0.89116399  0.09356207    -0.38300
N1766       N  0.89357576  0.87767739  0.05987164    -0.39900
N1767       N  0.79446097  0.82606879  0.94283247    -0.37600
N1768       N  0.83137982  0.81072361  0.91862214    -0.40000
N1769       N  0.87857971  0.86530638  0.89350768    -0.39800
N1770       N  0.90376379  0.83720216  0.86140648    -0.37400
N1771       N  0.88354789  0.79691620  0.06872280    -0.38500
N1772       N  0.85487490  0.82195561  0.09537368    -0.40100
C1773       C  0.91013080  0.78650752  0.15553541    -0.05100
C1774       C  0.89680857  0.77061933  0.17782581     0.09100
C1775       C  0.88830500  0.75344491  0.15616022    -0.02400
C1776       C  0.89238648  0.75234716  0.11187088    -0.00700
C1777       C  0.90467380  0.76847249  0.08866691    -0.04300
C1778       C  0.91385621  0.78550789  0.11098067     0.02700
C1779       C  0.89082556  0.77228363  0.22304635     0.09500
C1780       C  0.87511785  0.73696294  0.17933852     0.35400
C1781       C  0.92634691  0.80221874  0.08749722     0.38900
C1782       C  0.87731091  0.77746701  0.22866690    -0.04700
C1783       C  0.87191074  0.77963451  0.27090175     0.02500
C1784       C  0.87983498  0.77644207  0.30832542    -0.04300
C1785       C  0.89361863  0.77149793  0.30248370    -0.00500
C1786       C  0.89899532  0.76935949  0.26006808    -0.03100
C1787       C  0.86904037  0.78075357  0.19071034     0.36200
C1788       C  0.90316757  0.76975159  0.33996793     0.39800
C1789       C  0.85823825  0.78530997  0.27543577     0.38900
C1790       C  0.91326839  0.76455477  0.25434844     0.35900
C1791       C  0.91977382  0.80395700  0.17845578     0.36500
C1792       C  0.88419662  0.73457862  0.09037963     0.39800
N1793       N  0.84754433  0.79013460  0.27866981    -0.38300
N1794       N  0.86243800  0.78341438  0.16052738    -0.39900
N1795       N  0.91089018  0.76852067  0.36986938    -0.37600
N1796       N  0.92467954  0.76075154  0.24967151    -0.40000
N1797       N  0.86461259  0.72381497  0.19790488    -0.39800
N1798       N  0.87784487  0.72030984  0.07367385    -0.37400
N1799       N  0.93618306  0.81559135  0.06873890    -0.38500
N1800       N  0.92753335  0.81782514  0.19697380    -0.40100
C1801       C  0.87899410  0.76061072  0.73650440    -0.05100
C1802       C  0.86745656  0.76768288  0.72454283     0.09100
C1803       C  0.86203574  0.77622602  0.75634331    -0.02400
C1804       C  0.86911070  0.77881082  0.79909694    -0.00700
C1805       C  0.88148543  0.77268898  0.81029705    -0.04300
C1806       C  0.88589656  0.76300616  0.77939537     0.02700
C1807       C  0.86204328  0.76725906  0.67784709     0.09500
C1808       C  0.84934011  0.78253586  0.74474965     0.35400
C1809       C  0.89753264  0.75550823  0.79189218     0.38900
C1810       C  0.84724867  0.75113370  0.65959387    -0.04700
C1811       C  0.84286706  0.75066122  0.61496666     0.02500
C1812       C  0.85313061  0.76638229  0.58867966    -0.04300
C1813       C  0.86719489  0.78282066  0.60752385    -0.00500
C1814       C  0.87184338  0.78317732  0.65177933    -0.03100
C1815       C  0.83645644  0.73515816  0.68695532     0.36200
C1816       C  0.87674932  0.79944685  0.58135790     0.39800
C1817       C  0.82767632  0.73414351  0.59614481     0.38900
C1818       C  0.88679332  0.79991470  0.67054774     0.35900
C1819       C  0.88401789  0.75117350  0.70442466     0.36500
C1820       C  0.86401600  0.78814534  0.83131841     0.39800
N1821       N  0.81548210  0.72102496  0.58106566    -0.38300
N1822       N  0.82781961  0.72247053  0.70899015    -0.39900
N1823       N  0.88429445  0.81269480  0.56046456    -0.37600
N1824       N  0.89868605  0.81325693  0.68562932    -0.40000
N1825       N  0.83915254  0.78749029  0.73536949    -0.39800
N1826       N  0.85991855  0.79553939  0.85710097    -0.37400
N1827       N  0.90676455  0.74950256  0.80206816    -0.38500
N1828       N  0.88795831  0.74357536  0.67885322    -0.40100
C1829       C  0.70169043  0.48843021  0.89491750    -0.05100
C1830       C  0.69573655  0.49304670  0.85640751     0.09100
C1831       C  0.70894885  0.50524597  0.82620855    -0.02400
C1832       C  0.72795742  0.51365140  0.83570427    -0.00700
C1833       C  0.73391999  0.51054890  0.87626199    -0.04300
C1834       C  0.72073509  0.49717284  0.90494004     0.02700
C1835       C  0.67566889  0.48655067  0.84922943     0.09500
C1836       C  0.70293027  0.50976331  0.78610362     0.35400
C1837       C  0.72660122  0.49300166  0.94569268     0.38900
C1838       C  0.66770147  0.49599422  0.86941622    -0.04700
C1839       C  0.64968025  0.49187690  0.85830791     0.02500
C1840       C  0.63954054  0.47858103  0.82554001    -0.04300
C1841       C  0.64702712  0.46792697  0.80842107    -0.00500
C1842       C  0.66507131  0.47206672  0.82001724    -0.03100
C1843       C  0.67849328  0.51067280  0.90021568     0.36200
C1844       C  0.63680977  0.45334422  0.77703553     0.39800
C1845       C  0.64178302  0.50156007  0.88082684     0.38900
C1846       C  0.67313014  0.46196649  0.80043151     0.35900
C1847       C  0.68811558  0.47515859  0.92486426     0.36500
C1848       C  0.74139980  0.52510314  0.80310789     0.39800
N1849       N  0.63555901  0.50932091  0.89887075    -0.38300
N1850       N  0.68716744  0.52240599  0.92461892    -0.39900
N1851       N  0.62875723  0.44173628  0.75186812    -0.37600
N1852       N  0.67960116  0.45397004  0.78468879    -0.40000
N1853       N  0.69811091  0.51340927  0.75421919    -0.39800
N1854       N  0.75199577  0.53390304  0.77651900    -0.37400
N1855       N  0.73125346  0.48966913  0.97825772    -0.38500
N1856       N  0.67723641  0.46455037  0.94866905    -0.40100
C1857       C  0.84775655  0.64725251  0.88004756    -0.05100
C1858       C  0.86041375  0.65480096  0.91477298     0.09100
C1859       C  0.86313950  0.64295901  0.94249626    -0.02400
C1860       C  0.85296882  0.62363291  0.93612431    -0.00700
C1861       C  0.83942411  0.61594276  0.90290998    -0.04300
C1862       C  0.83724342  0.62796441  0.87424483     0.02700
C1863       C  0.86999642  0.67517944  0.92342041     0.09500
C1864       C  0.87605491  0.65070061  0.97839464     0.35400
C1865       C  0.82456801  0.62058271  0.83776993     0.38900
C1866       C  0.86072667  0.68257793  0.94692255    -0.04700
C1867       C  0.86898747  0.70180440  0.95290453     0.02500
C1868       C  0.88685738  0.71394949  0.93591521    -0.04300
C1869       C  0.89627660  0.70641873  0.91294828    -0.00500
C1870       C  0.88783368  0.68712776  0.90669522    -0.03100
C1871       C  0.84257877  0.67027216  0.96509038     0.36200
C1872       C  0.91433645  0.71848562  0.89407395     0.39800
C1873       C  0.85904518  0.70894996  0.97724257     0.38900
C1874       C  0.89737028  0.67951707  0.88251787     0.35900
C1875       C  0.84545630  0.65943583  0.85044831     0.36500
C1876       C  0.85623004  0.61173048  0.96445210     0.39800
N1877       N  0.85103854  0.71461152  0.99647278    -0.38300
N1878       N  0.82813011  0.66041126  0.97961889    -0.39900
N1879       N  0.92873663  0.72806761  0.87893254    -0.37600
N1880       N  0.90496343  0.67340832  0.86327757    -0.40000
N1881       N  0.88631025  0.65692536  0.00714030    -0.39800
N1882       N  0.85897268  0.60227098  0.98686737    -0.37400
N1883       N  0.81453380  0.61479825  0.80852423    -0.38500
N1884       N  0.84368051  0.66919418  0.82686741    -0.40100
C1885       C  0.81230273  0.48274726  0.79812056    -0.05100
C1886       C  0.81900303  0.47466604  0.82795096     0.09100
C1887       C  0.81988567  0.47886412  0.87269444    -0.02400
C1888       C  0.81506013  0.49181583  0.88728068    -0.00700
C1889       C  0.80945976  0.50081167  0.85709749    -0.04300
C1890       C  0.80759630  0.49586118  0.81264502     0.02700
C1891       C  0.82768864  0.46390265  0.81204674     0.09500
C1892       C  0.82669017  0.47051673  0.90344095     0.35400
C1893       C  0.80065545  0.50409782  0.78205343     0.38900
C1894       C  0.84591468  0.47353067  0.79588829    -0.04700
C1895       C  0.85521408  0.46398138  0.78527012     0.02500
C1896       C  0.84655150  0.44467132  0.79188973    -0.04300
C1897       C  0.82804887  0.43492901  0.80681000    -0.00500
C1898       C  0.81862296  0.44454701  0.81665205    -0.03100
C1899       C  0.85531774  0.49345115  0.79135831     0.36200
C1900       C  0.81896920  0.41518368  0.81384133     0.39800
C1901       C  0.87366186  0.47413819  0.76667583     0.38900
C1902       C  0.79972057  0.43464020  0.83230753     0.35900
C1903       C  0.81078016  0.47790960  0.75234672     0.36500
C1904       C  0.81682383  0.49658534  0.93321182     0.39800
N1905       N  0.88835302  0.48225186  0.75185353    -0.38300
N1906       N  0.86275916  0.50932507  0.78786129    -0.39900
N1907       N  0.81175458  0.39943006  0.81953053    -0.37600
N1908       N  0.78462550  0.42675394  0.84478280    -0.40000
N1909       N  0.83212718  0.46381148  0.92776292    -0.39800
N1910       N  0.81812968  0.50035726  0.96982255    -0.37400
N1911       N  0.79497535  0.51055620  0.75768088    -0.38500
N1912       N  0.80958716  0.47402839  0.71581853    -0.40100
C1913       C  0.79336738  0.57732855  0.59042168    -0.05100
C1914       C  0.78977143  0.56200932  0.61642493     0.09100
C1915       C  0.77926911  0.54401509  0.59952164    -0.02400
C1916       C  0.77202701  0.54133059  0.55714550    -0.00700
C1917       C  0.77420513  0.55656314  0.53245980    -0.04300
C1918       C  0.78507303  0.57462089  0.54912752     0.02700
C1919       C  0.79499153  0.56459418  0.66338494     0.09500
C1920       C  0.77532418  0.52819553  0.62637021     0.35400
C1921       C  0.78676519  0.59033310  0.52528434     0.38900
C1922       C  0.78521467  0.56953713  0.69256405    -0.04700
C1923       C  0.78880735  0.57056158  0.73746810     0.02500
C1924       C  0.80121159  0.56512001  0.75426592    -0.04300
C1925       C  0.81145880  0.56071973  0.72438597    -0.00500
C1926       C  0.80862127  0.56092932  0.67912475    -0.03100
C1927       C  0.77088695  0.57296194  0.67639587     0.36200
C1928       C  0.82446341  0.55528920  0.73948518     0.39800
C1929       C  0.77955588  0.57731523  0.76580677     0.38900
C1930       C  0.81944085  0.55697919  0.64853845     0.35900
C1931       C  0.80518336  0.59585269  0.60689567     0.36500
C1932       C  0.76253957  0.52285246  0.53888078     0.39800
N1933       N  0.77203893  0.58260823  0.78813139    -0.38300
N1934       N  0.75947336  0.57565121  0.66341756    -0.39900
N1935       N  0.83483755  0.55090702  0.75122489    -0.37600
N1936       N  0.82806826  0.55385401  0.62410563    -0.40000
N1937       N  0.77217185  0.51560575  0.64783832    -0.39800
N1938       N  0.75505245  0.50814511  0.52424346    -0.37400
N1939       N  0.78796130  0.60285565  0.50652927    -0.38500
N1940       N  0.81465865  0.61060320  0.62012141    -0.40100
C1941       C  0.75014025  0.55171896  0.08785652    -0.05100
C1942       C  0.76439257  0.56414687  0.11559942     0.09100
C1943       C  0.78243121  0.57531167  0.09920031    -0.02400
C1944       C  0.78658519  0.57287323  0.05614920    -0.00700
C1945       C  0.77261024  0.55950297  0.02932076    -0.04300
C1946       C  0.75422719  0.54954615  0.04450262     0.02700
C1947       C  0.76097675  0.56391570  0.16320070     0.09500
C1948       C  0.79681949  0.58877202  0.12730202     0.35400
C1949       C  0.73954669  0.53717461  0.01545726     0.38900
C1950       C  0.76616827  0.55387203  0.19083395    -0.04700
C1951       C  0.76323187  0.55357613  0.23597162     0.02500
C1952       C  0.75490075  0.56321479  0.25366010    -0.04300
C1953       C  0.74970435  0.57328233  0.22592096    -0.00500
C1954       C  0.75277727  0.57364510  0.18069363    -0.03100
C1955       C  0.77440436  0.54365988  0.17267667     0.36200
C1956       C  0.74181303  0.58379426  0.24407942     0.39800
C1957       C  0.76839954  0.54290109  0.26376046     0.38900
C1958       C  0.74769315  0.58413704  0.15214303     0.35900
C1959       C  0.73146297  0.54070677  0.10447918     0.36500
C1960       C  0.80542075  0.58337813  0.04028648     0.39800
N1961       N  0.77268176  0.53430621  0.28511711    -0.38300
N1962       N  0.78096234  0.53548236  0.15843646    -0.39900
N1963       N  0.73557070  0.59219151  0.25875752    -0.37600
N1964       N  0.74362375  0.59249894  0.12934155    -0.40000
N1965       N  0.80824899  0.59950936  0.14980789    -0.39800
N1966       N  0.82047345  0.59172439  0.02776650    -0.37400
N1967       N  0.72772360  0.52750511  0.99227245    -0.38500
N1968       N  0.71657330  0.53195557  0.11783591    -0.40100
C1969       C  0.16950265  0.55258130  0.24017246    -0.05100
C1970       C  0.16425856  0.53983354  0.20570840     0.09100
C1971       C  0.15058135  0.53791955  0.17598051    -0.02400
C1972       C  0.14160591  0.54816131  0.18166648    -0.00700
C1973       C  0.14631143  0.56052956  0.21712102    -0.04300
C1974       C  0.16094048  0.56331498  0.24521463     0.02700
C1975       C  0.17274321  0.52798380  0.20045613     0.09500
C1976       C  0.14527934  0.52487684  0.14023457     0.35400
C1977       C  0.16671299  0.57657696  0.28052731     0.38900
C1978       C  0.16396561  0.51016961  0.21850580    -0.04700
C1979       C  0.16930674  0.49740679  0.20545508     0.02500
C1980       C  0.18304833  0.50221326  0.17267144    -0.04300
C1981       C  0.19346612  0.52096450  0.15932063    -0.00500
C1982       C  0.18823453  0.53373464  0.17326517    -0.03100
C1983       C  0.14887163  0.50477877  0.24916623     0.36200
C1984       C  0.20885242  0.52715127  0.12923290     0.39800
C1985       C  0.16044765  0.47933927  0.22585131     0.38900
C1986       C  0.19823267  0.55266678  0.15807209     0.35900
C1987       C  0.18303186  0.55391308  0.27163189     0.36500
C1988       C  0.12759830  0.54599663  0.15058738     0.39800
N1989       N  0.15338548  0.46497116  0.24226435    -0.38300
N1990       N  0.13683700  0.50051346  0.27358921    -0.39900
N1991       N  0.22110755  0.53217140  0.10513239    -0.37600
N1992       N  0.20622492  0.56780102  0.14619074    -0.40000
N1993       N  0.14093432  0.51443213  0.11183208    -0.39800
N1994       N  0.11645753  0.54415967  0.12560884    -0.37400
N1995       N  0.17140638  0.58718135  0.30866338    -0.38500
N1996       N  0.19364912  0.55475267  0.29698513    -0.40100
C1997       C  0.08909884  0.56710207  0.91756152    -0.05100
C1998       C  0.09933200  0.56583047  0.95240365     0.09100
C1999       C  0.11276405  0.56076357  0.94440221    -0.02400
C2000       C  0.11580999  0.55664815  0.90183244    -0.00700
C2001       C  0.10565183  0.55794849  0.86629916    -0.04300
C2002       C  0.09221591  0.56320909  0.87460999     0.02700
C2003       C  0.09559054  0.56891539  0.99830683     0.09500
C2004       C  0.12331068  0.55949799  0.98047481     0.35400
C2005       C  0.08162365  0.56483479  0.83926453     0.38900
C2006       C  0.08619923  0.55367754  0.02631275    -0.04700
C2007       C  0.08566798  0.55637223  0.07144515     0.02500
C2008       C  0.09407057  0.57450207  0.08898398    -0.04300
C2009       C  0.10206810  0.58976299  0.05992821    -0.00500
C2010       C  0.10313720  0.58693001  0.01491176    -0.03100
C2011       C  0.07764358  0.53512547  0.00857107     0.36200
C2012       C  0.10984666  0.60848923  0.07593586     0.39800
C2013       C  0.07655760  0.54027417  0.09942704     0.38900
C2014       C  0.11270205  0.60257442  0.98577769     0.35900
C2015       C  0.07524051  0.57227258  0.92611977     0.36500
C2016       C  0.12893727  0.55031750  0.89564755     0.39800
N2017       N  0.06943092  0.52734152  0.12146915    -0.38300
N2018       N  0.07089589  0.52037739  0.99429409    -0.39900
N2019       N  0.11589790  0.62346913  0.08829655    -0.37600
N2020       N  0.12033861  0.61502388  0.96247862    -0.40000
N2021       N  0.13161087  0.55840876  0.00929975    -0.39800
N2022       N  0.13948295  0.54532844  0.89159892    -0.37400
N2023       N  0.07305060  0.56604354  0.81124199    -0.38500
N2024       N  0.06423795  0.57646226  0.93298878    -0.40100
C2025       C  0.11055918  0.54956644  0.52522887    -0.05100
C2026       C  0.09584558  0.53624629  0.49984721     0.09100
C2027       C  0.08190067  0.51995554  0.51956986    -0.02400
C2028       C  0.08235425  0.51726794  0.56483297    -0.00700
C2029       C  0.09697202  0.53075008  0.59027539    -0.04300
C2030       C  0.11143576  0.54653185  0.56995750     0.02700
C2031       C  0.09535975  0.53945844  0.45215899     0.09500
C2032       C  0.06707743  0.50603886  0.49321272     0.35400
C2033       C  0.12781923  0.55910925  0.59446642     0.38900
C2034       C  0.10833905  0.53868068  0.42412660    -0.04700
C2035       C  0.10978808  0.54440654  0.38049563     0.02500
C2036       C  0.09798898  0.55053975  0.36445676    -0.04300
C2037       C  0.08383526  0.54958745  0.39132582    -0.00500
C2038       C  0.08284525  0.54455128  0.43547413    -0.03100
C2039       C  0.12068422  0.53266627  0.44074500     0.36200
C2040       C  0.07091195  0.55472521  0.37423552     0.39800
C2041       C  0.12337340  0.54387065  0.35206488     0.38900
C2042       C  0.06972496  0.54570926  0.46436870     0.35900
C2043       C  0.12474243  0.56653077  0.50535228     0.36500
C2044       C  0.06767841  0.50076980  0.58514822     0.39800
N2045       N  0.13414328  0.54316561  0.32969010    -0.38300
N2046       N  0.13058918  0.52797765  0.45413895    -0.39900
N2047       N  0.06051330  0.55871462  0.36062273    -0.37600
N2048       N  0.05933573  0.54671893  0.48752707    -0.40000
N2049       N  0.05524405  0.49500015  0.47207244    -0.39800
N2050       N  0.05597579  0.48755877  0.60122077    -0.37400
N2051       N  0.14106301  0.56897067  0.61362271    -0.38500
N2052       N  0.13603055  0.58006916  0.48953922    -0.40100
C2053       C  0.81924575  0.33267271  0.30219556    -0.05100
C2054       C  0.81273236  0.34287035  0.32519727     0.09100
C2055       C  0.80033478  0.33459220  0.36029048    -0.02400
C2056       C  0.79621422  0.31707854  0.37562904    -0.00700
C2057       C  0.80385432  0.30738635  0.35453615    -0.04300
C2058       C  0.81434121  0.31477188  0.31598584     0.02700
C2059       C  0.82067932  0.36296298  0.31576169     0.09500
C2060       C  0.79259270  0.34457656  0.38196440     0.35400
C2061       C  0.82022993  0.30402787  0.29050810     0.38900
C2062       C  0.81634708  0.36890274  0.27681293    -0.04700
C2063       C  0.82581503  0.38780933  0.26576146     0.02500
C2064       C  0.83910197  0.40094137  0.29461129    -0.04300
C2065       C  0.84227471  0.39503916  0.33510942    -0.00500
C2066       C  0.83352645  0.37612602  0.34509231    -0.03100
C2067       C  0.80243491  0.35546826  0.24776411     0.36200
C2068       C  0.85425390  0.40845081  0.36709975     0.39800
C2069       C  0.82261914  0.39353943  0.22364847     0.38900
C2070       C  0.83824501  0.37016123  0.38501332     0.35900
C2071       C  0.83187422  0.34099374  0.26580801     0.36500
C2072       C  0.78525802  0.30980190  0.41497037     0.39800
N2073       N  0.82014720  0.39803832  0.18986738    -0.38300
N2074       N  0.79132192  0.34469810  0.22469990    -0.39900
N2075       N  0.86354054  0.41903009  0.39313136    -0.37600
N2076       N  0.84198516  0.36535668  0.41678167    -0.40000
N2077       N  0.78646297  0.35258160  0.39925575    -0.39800
N2078       N  0.77658334  0.30405497  0.44645938    -0.37400
N2079       N  0.82486114  0.29548767  0.26990173    -0.38500
N2080       N  0.84197739  0.34764967  0.23686138    -0.40100
C2081       C  0.86588292  0.54053171  0.02590314    -0.05100
C2082       C  0.85843222  0.53460077  0.06788526     0.09100
C2083       C  0.84278673  0.53563439  0.08078594    -0.02400
C2084       C  0.83385027  0.54125613  0.05079059    -0.00700
C2085       C  0.83965146  0.54460586  0.00660430    -0.04300
C2086       C  0.85630631  0.54498243  0.99485491     0.02700
C2087       C  0.86579401  0.52549877  0.09712183     0.09500
C2088       C  0.83532926  0.53006048  0.12445208     0.35400
C2089       C  0.86312148  0.54863420  0.95037147     0.38900
C2090       C  0.87513965  0.53412109  0.13582464    -0.04700
C2091       C  0.87856205  0.52403406  0.16761416     0.02500
C2092       C  0.87330672  0.50525262  0.15994681    -0.04300
C2093       C  0.86648976  0.49772304  0.11786505    -0.00500
C2094       C  0.86214215  0.50754543  0.08747651    -0.03100
C2095       C  0.88086953  0.55335570  0.14317167     0.36200
C2096       C  0.86375988  0.47982472  0.10511366     0.39800
C2097       C  0.88691411  0.53310977  0.20843557     0.38900
C2098       C  0.85326057  0.49883724  0.04669039     0.35900
C2099       C  0.88312231  0.54137652  0.01434916     0.36500
C2100       C  0.81854578  0.54338896  0.06563015     0.39800
N2101       N  0.89355491  0.54045025  0.24094280    -0.38300
N2102       N  0.88552036  0.56872148  0.14885431    -0.39900
N2103       N  0.86153989  0.46558115  0.09471195    -0.37600
N2104       N  0.84625654  0.49182119  0.01419442    -0.40000
N2105       N  0.82938833  0.52560905  0.15926320    -0.39800
N2106       N  0.80636083  0.54512568  0.07738468    -0.37400
N2107       N  0.86860773  0.55144171  0.91490951    -0.38500
N2108       N  0.89691222  0.54211100  0.00534309    -0.40100
C2109       C  0.89238858  0.47850688  0.49109060    -0.05100
C2110       C  0.89687429  0.46556825  0.50732410     0.09100
C2111       C  0.90164728  0.45560027  0.47847448    -0.02400
C2112       C  0.90097520  0.45778363  0.43318676    -0.00700
C2113       C  0.89465405  0.46946919  0.41614660    -0.04300
C2114       C  0.89097903  0.48031965  0.44579988     0.02700
C2115       C  0.89407244  0.46048655  0.55432302     0.09500
C2116       C  0.90660372  0.44250898  0.49559508     0.35400
C2117       C  0.88504904  0.49291073  0.43062506     0.38900
C2118       C  0.87597408  0.44881881  0.56965744    -0.04700
C2119       C  0.87301961  0.44247242  0.61284961     0.02500
C2120       C  0.88826400  0.44698580  0.64055832    -0.04300
C2121       C  0.90641975  0.45925675  0.62549771    -0.00500
C2122       C  0.90925447  0.46611514  0.58251325    -0.03100
C2123       C  0.86037700  0.44273607  0.54027392     0.36200
C2124       C  0.92227875  0.46421710  0.65319616     0.39800
C2125       C  0.85416670  0.43133021  0.62855252     0.38900
C2126       C  0.92780638  0.47851220  0.56669888     0.35900
C2127       C  0.88864276  0.48953816  0.52140830     0.36500
C2128       C  0.90681031  0.44776637  0.40480997     0.39800
N2129       N  0.83913968  0.42242651  0.64096809    -0.38300
N2130       N  0.84801078  0.43786323  0.51668722    -0.39900
N2131       N  0.93496262  0.46822186  0.67520757    -0.37600
N2132       N  0.94260420  0.48837102  0.55400837    -0.40000
N2133       N  0.91055092  0.43210227  0.50934219    -0.39800
N2134       N  0.91134241  0.43957946  0.38257728    -0.37400
N2135       N  0.88034260  0.50301387  0.41884219    -0.38500
N2136       N  0.88570910  0.49833366  0.54568243    -0.40100
C2137       C  0.88034972  0.42930919  0.98208003    -0.05100
C2138       C  0.89428387  0.42958771  0.00836756     0.09100
C2139       C  0.90857810  0.42765711  0.98937652    -0.02400
C2140       C  0.90891316  0.42543748  0.94390871    -0.00700
C2141       C  0.89496930  0.42519554  0.91768216    -0.04300
C2142       C  0.88082027  0.42736460  0.93674052     0.02700
C2143       C  0.89414520  0.43299346  0.05583416     0.09500
C2144       C  0.92294524  0.42813018  0.01659686     0.35400
C2145       C  0.86674275  0.42767704  0.90980550     0.38900
C2146       C  0.88306479  0.41823804  0.08406464    -0.04700
C2147       C  0.87989286  0.42186970  0.12705649     0.02500
C2148       C  0.88774220  0.44025431  0.14151982    -0.04300
C2149       C  0.89963228  0.45494427  0.11401145    -0.00500
C2150       C  0.90289309  0.45130163  0.07120374    -0.03100
C2151       C  0.87433648  0.39942954  0.06812466     0.36200
C2152       C  0.90763114  0.47385170  0.12899132     0.39800
C2153       C  0.86841531  0.40676235  0.15618669     0.38900
C2154       C  0.91447081  0.46640731  0.04214930     0.35900
C2155       C  0.86554131  0.43109276  0.00187750     0.36500
C2156       C  0.92396269  0.42420257  0.92381289     0.39800
N2157       N  0.85935130  0.39465232  0.17938321    -0.38300
N2158       N  0.86736969  0.38445276  0.05520615    -0.39900
N2159       N  0.91389276  0.48889903  0.14101390    -0.37600
N2160       N  0.92368672  0.47842095  0.01887337    -0.40000
N2161       N  0.93441482  0.42850818  0.03833885    -0.39800
N2162       N  0.93600689  0.42336283  0.90752561    -0.37400
N2163       N  0.85547570  0.42806943  0.88881301    -0.38500
N2164       N  0.85372425  0.43242703  0.01784311    -0.40100
C2165       C  0.97551148  0.51660509  0.28878088    -0.05100
C2166       C  0.98245656  0.53160232  0.25963812     0.09100
C2167       C  0.97003550  0.53504036  0.23611682    -0.02400
C2168       C  0.95075680  0.52308120  0.24016218    -0.00700
C2169       C  0.94366610  0.50748234  0.26803989    -0.04300
C2170       C  0.95626900  0.50459326  0.29300160     0.02700
C2171       C  0.00284233  0.54273478  0.25089879     0.09500
C2172       C  0.97719540  0.55090009  0.20742284     0.35400
C2173       C  0.94959878  0.48956863  0.32410169     0.38900
C2174       C  0.01022256  0.53861478  0.21408163    -0.04700
C2175       C  0.02946553  0.54806110  0.20682755     0.02500
C2176       C  0.04161905  0.56159640  0.23668316    -0.04300
C2177       C  0.03413030  0.56639793  0.27236124    -0.00500
C2178       C  0.01481062  0.55687523  0.27961804    -0.03100
C2179       C  0.99793336  0.52437452  0.18392434     0.36200
C2180       C  0.04629551  0.58079627  0.30226137     0.39800
C2181       C  0.03661501  0.54427878  0.16752094     0.38900
C2182       C  0.00722745  0.56136656  0.31705606     0.35900
C2183       C  0.98827773  0.51353435  0.31443314     0.36500
C2184       C  0.93834976  0.52666589  0.21448052     0.39800
N2185       N  0.04200197  0.54124487  0.13564821    -0.38300
N2186       N  0.98806190  0.51303151  0.15997332    -0.39900
N2187       N  0.05605397  0.59234336  0.32594816    -0.37600
N2188       N  0.00118028  0.56491049  0.34703579    -0.40000
N2189       N  0.98293724  0.56358287  0.18461700    -0.39800
N2190       N  0.92846723  0.52958808  0.19412633    -0.37400
N2191       N  0.94444483  0.47762799  0.34898676    -0.38500
N2192       N  0.99849041  0.51121040  0.33508219    -0.40100
C2193       C  0.80258969  0.51528330  0.37413879    -0.05100
C2194       C  0.79291672  0.49686817  0.35959354     0.09100
C2195       C  0.77343111  0.48739817  0.35806731    -0.02400
C2196       C  0.76365730  0.49653593  0.36941239    -0.00700
C2197       C  0.77337605  0.51525953  0.38256980    -0.04300
C2198       C  0.79291835  0.52432283  0.38639562     0.02700
C2199       C  0.80357220  0.48812036  0.34294570     0.09500
C2200       C  0.76351577  0.46835486  0.34379785     0.35400
C2201       C  0.80321517  0.54286300  0.40410202     0.38900
C2202       C  0.81088158  0.48038531  0.37207835    -0.04700
C2203       C  0.82327134  0.47478295  0.35688015     0.02500
C2204       C  0.82837361  0.47686277  0.31246110    -0.04300
C2205       C  0.82037101  0.48384557  0.28300998    -0.00500
C2206       C  0.80800382  0.48940967  0.29823822    -0.03100
C2207       C  0.80599967  0.47866301  0.41786076     0.36200
C2208       C  0.82575566  0.48647730  0.23740788     0.39800
C2209       C  0.83083295  0.46692380  0.38685806     0.38900
C2210       C  0.80043145  0.49727665  0.26823480     0.35900
C2211       C  0.82264931  0.52513561  0.37524881     0.36500
C2212       C  0.74367580  0.48678449  0.36608606     0.39800
N2213       N  0.83685699  0.46058248  0.41060856    -0.38300
N2214       N  0.80209262  0.47728969  0.45441512    -0.39900
N2215       N  0.83001420  0.48867309  0.20103514    -0.37600
N2216       N  0.79435142  0.50357076  0.24450915    -0.40000
N2217       N  0.75564283  0.45315301  0.33236771    -0.39800
N2218       N  0.72772190  0.47898310  0.36356615    -0.37400
N2219       N  0.81143445  0.55761489  0.41832783    -0.38500
N2220       N  0.83863728  0.53298626  0.37584638    -0.40100
C2221       C  0.01911086  0.82016271  0.75051464    -0.05100
C2222       C  0.00440739  0.80234059  0.74112093     0.09100
C2223       C  0.00394307  0.79417651  0.70062809    -0.02400
C2224       C  0.01717389  0.80438619  0.66810860    -0.00700
C2225       C  0.03109122  0.82293257  0.67604838    -0.04300
C2226       C  0.03234607  0.83046320  0.71825862     0.02700
C2227       C  0.98793716  0.79381771  0.77082703     0.09500
C2228       C  0.98921020  0.77553587  0.69180209     0.35400
C2229       C  0.04680523  0.84909018  0.72860554     0.38900
C2230       C  0.97295705  0.79650381  0.76175494    -0.04700
C2231       C  0.95886306  0.79173531  0.79285301     0.02500
C2232       C  0.95983240  0.78464744  0.83418339    -0.04300
C2233       C  0.97404671  0.78041899  0.84153660    -0.00500
C2234       C  0.98801927  0.78498777  0.80983320    -0.03100
C2235       C  0.97258288  0.80514306  0.72104550     0.36200
C2236       C  0.97504719  0.77237894  0.88251577     0.39800
C2237       C  0.94357550  0.79456110  0.78209393     0.38900
C2238       C  0.00289977  0.78125724  0.81785801     0.35900
C2239       C  0.02000138  0.82830129  0.79286967     0.36500
C2240       C  0.01539870  0.79616151  0.62549503     0.39800
N2241       N  0.93157804  0.79701650  0.77286321    -0.38300
N2242       N  0.97239416  0.81207288  0.68860723    -0.39900
N2243       N  0.97585586  0.76590823  0.91514083    -0.37600
N2244       N  0.01476793  0.77825198  0.82415819    -0.40000
N2245       N  0.97743496  0.76066173  0.68483334    -0.39800
N2246       N  0.01392509  0.78958578  0.59147944    -0.37400
N2247       N  0.05807998  0.86397617  0.73741080    -0.38500
N2248       N  0.02067861  0.83474041  0.82667282    -0.40100
C2249       C  0.98834902  0.83448315  0.47579079    -0.05100
C2250       C  0.97785125  0.84040697  0.49959728     0.09100
C2251       C  0.98624025  0.85324096  0.53371166    -0.02400
C2252       C  0.00471195  0.85928086  0.54582114    -0.00700
C2253       C  0.01505928  0.85260618  0.52347851    -0.04300
C2254       C  0.00690244  0.84074522  0.48710574     0.02700
C2255       C  0.95759030  0.83207593  0.49054798     0.09500
C2256       C  0.97552984  0.85966120  0.55745793     0.35400
C2257       C  0.01744360  0.83471760  0.46120670     0.38900
C2258       C  0.94458117  0.81809406  0.51805646    -0.04700
C2259       C  0.92554679  0.80922285  0.50828407     0.02500
C2260       C  0.91925929  0.81425281  0.47060315    -0.04300
C2261       C  0.93244832  0.82819129  0.44284526    -0.00500
C2262       C  0.95145799  0.83721575  0.45319075    -0.03100
C2263       C  0.95090286  0.81242096  0.55587480     0.36200
C2264       C  0.92674006  0.83223920  0.40166470     0.39800
C2265       C  0.91263807  0.79454747  0.53672579     0.38900
C2266       C  0.96484798  0.85149554  0.42471423     0.35900
C2267       C  0.97975766  0.82125134  0.44068676     0.36500
C2268       C  0.01250908  0.87149418  0.58297428     0.39800
N2269       N  0.90260260  0.78268275  0.55939899    -0.38300
N2270       N  0.95596997  0.80791645  0.58598615    -0.39900
N2271       N  0.92220961  0.83529617  0.36858139    -0.37600
N2272       N  0.97556610  0.86284422  0.40196937    -0.40000
N2273       N  0.96690806  0.86467907  0.57643355    -0.39800
N2274       N  0.01866270  0.88124171  0.61264035    -0.37400
N2275       N  0.02575001  0.82982746  0.44047541    -0.38500
N2276       N  0.97287680  0.81067932  0.41276631    -0.40100
C2277       C  0.12647856  0.81673218  0.56394772    -0.05100
C2278       C  0.11519112  0.79877669  0.58057357     0.09100
C2279       C  0.09687598  0.79304814  0.59321859    -0.02400
C2280       C  0.08994164  0.80527584  0.58986097    -0.00700
C2281       C  0.10114817  0.82326811  0.57261945    -0.04300
C2282       C  0.11952797  0.82889399  0.55979943     0.02700
C2283       C  0.12319665  0.78647992  0.58734873     0.09500
C2284       C  0.08521998  0.77456112  0.61010551     0.35400
C2285       C  0.13138949  0.84713270  0.54176111     0.38900
C2286       C  0.12841053  0.78419782  0.62960782    -0.04700
C2287       C  0.13810003  0.77463400  0.63557243     0.02500
C2288       C  0.14352187  0.76818329  0.59912028    -0.04300
C2289       C  0.13766134  0.76976147  0.55704653    -0.00500
C2290       C  0.12707468  0.77844591  0.55133518    -0.03100
C2291       C  0.12464582  0.79254297  0.66672009     0.36200
C2292       C  0.14274609  0.76266856  0.51963993     0.39800
C2293       C  0.14328217  0.77221467  0.67912309     0.38900
C2294       C  0.12043827  0.77944218  0.50837446     0.35900
C2295       C  0.14544085  0.82278756  0.55160683     0.36500
C2296       C  0.07156351  0.79953825  0.60632533     0.39800
N2297       N  0.14731351  0.77016492  0.71385895    -0.38300
N2298       N  0.12167209  0.79928180  0.69620575    -0.39900
N2299       N  0.14682541  0.75704835  0.48975254    -0.37600
N2300       N  0.11503600  0.78014173  0.47414739    -0.40000
N2301       N  0.07595586  0.75982597  0.62366836    -0.39800
N2302       N  0.05694651  0.79492089  0.61979872    -0.37400
N2303       N  0.14092966  0.86169409  0.52755383    -0.38500
N2304       N  0.16053515  0.82754142  0.54171967    -0.40100
C2305       C  0.17157093  0.66543158  0.70639669    -0.05100
C2306       C  0.17571683  0.65533300  0.67613891     0.09100
C2307       C  0.18551193  0.66400238  0.63774526    -0.02400
C2308       C  0.19034421  0.68240508  0.62858025    -0.00700
C2309       C  0.18520601  0.69221489  0.65765869    -0.04300
C2310       C  0.17619470  0.68374506  0.69713557     0.02700
C2311       C  0.16735178  0.63492349  0.68201697     0.09500
C2312       C  0.18949810  0.65352716  0.60633233     0.35400
C2313       C  0.17112695  0.69365238  0.72773469     0.38900
C2314       C  0.14940506  0.62305359  0.66620781    -0.04700
C2315       C  0.14038858  0.60402857  0.67540176     0.02500
C2316       C  0.14893646  0.59667298  0.70234831    -0.04300
C2317       C  0.16746895  0.60853811  0.71591239    -0.00500
C2318       C  0.17666541  0.62753049  0.70519757    -0.03100
C2319       C  0.14000678  0.63060876  0.64126439     0.36200
C2320       C  0.17691833  0.60160760  0.74267139     0.39800
C2321       C  0.12232824  0.59212293  0.65637909     0.38900
C2322       C  0.19563457  0.63960267  0.71861475     0.35900
C2323       C  0.16154525  0.65653051  0.74598224     0.36500
C2324       C  0.19912723  0.69059406  0.58732397     0.39800
N2325       N  0.10797405  0.58276043  0.64089392    -0.38300
N2326       N  0.13256157  0.63672626  0.62157738    -0.39900
N2327       N  0.18453608  0.59617601  0.76409518    -0.37600
N2328       N  0.21082425  0.64922013  0.72899234    -0.40000
N2329       N  0.19255764  0.64511011  0.58117561    -0.39800
N2330       N  0.20605702  0.69709335  0.55433413    -0.37400
N2331       N  0.16698892  0.70144579  0.75225684    -0.38500
N2332       N  0.15347850  0.64933158  0.77740692    -0.40100
C2333       C  0.12230743  0.67686301  0.47514652    -0.05100
C2334       C  0.13214391  0.67373433  0.44217858     0.09100
C2335       C  0.15154998  0.68430622  0.44113409    -0.02400
C2336       C  0.16121406  0.69760767  0.47342806    -0.00700
C2337       C  0.15153407  0.70037632  0.50827458    -0.04300
C2338       C  0.13186480  0.69016617  0.50794738     0.02700
C2339       C  0.12239624  0.65864524  0.40950434     0.09500
C2340       C  0.16183885  0.68124349  0.40722639     0.35400
C2341       C  0.12121277  0.69286805  0.54147087     0.38900
C2342       C  0.12035732  0.66288041  0.36616362    -0.04700
C2343       C  0.11509676  0.64939868  0.33321057     0.02500
C2344       C  0.11188332  0.63152087  0.34363362    -0.04300
C2345       C  0.11196214  0.62687305  0.38802610    -0.00500
C2346       C  0.11740530  0.64044103  0.42067357    -0.03100
C2347       C  0.12482140  0.68149901  0.35519962     0.36200
C2348       C  0.10705031  0.60826669  0.40034661     0.39800
C2349       C  0.11466167  0.65461024  0.28832814     0.38900
C2350       C  0.11900160  0.63596194  0.46555152     0.35900
C2351       C  0.10228641  0.66600776  0.47572669     0.36500
C2352       C  0.18123435  0.70850172  0.46946750     0.39800
N2353       N  0.11439989  0.65886266  0.25257667    -0.38300
N2354       N  0.12846109  0.69637758  0.34653584    -0.39900
N2355       N  0.10329916  0.59352795  0.41068000    -0.37600
N2356       N  0.12031466  0.63242915  0.50133528    -0.40000
N2357       N  0.17057579  0.67925249  0.38085260    -0.39800
N2358       N  0.19714983  0.71706211  0.46596059    -0.37400
N2359       N  0.11260509  0.69501973  0.56796403    -0.38500
N2360       N  0.08632174  0.65725335  0.47622091    -0.40100
C2361       C  0.21302211  0.71481044  0.16835490    -0.05100
C2362       C  0.19403026  0.70399698  0.15838488     0.09100
C2363       C  0.18493119  0.71221096  0.13758916    -0.02400
C2364       C  0.19470144  0.73108155  0.12685288    -0.00700
C2365       C  0.21354567  0.74211465  0.13830344    -0.04300
C2366       C  0.22268875  0.73389387  0.15905857     0.02700
C2367       C  0.18306592  0.68425135  0.17240200     0.09500
C2368       C  0.16537435  0.70122819  0.12767007     0.35400
C2369       C  0.24181355  0.74517819  0.17237092     0.38900
C2370       C  0.17756440  0.68006004  0.21632308    -0.04700
C2371       C  0.16488590  0.66179927  0.22860448     0.02500
C2372       C  0.15731306  0.64760130  0.19700969    -0.04300
C2373       C  0.16392652  0.65152402  0.15378574    -0.00500
C2374       C  0.17677904  0.66984110  0.14147007    -0.03100
C2375       C  0.18450046  0.69465740  0.24868452     0.36200
C2376       C  0.15819335  0.63663318  0.12268575     0.39800
C2377       C  0.15930199  0.65764365  0.27381159     0.38900
C2378       C  0.18344957  0.67396683  0.09695772     0.35900
C2379       C  0.22256899  0.70625018  0.18816247     0.36500
C2380       C  0.18545191  0.73897240  0.10257047     0.39800
N2381       N  0.15485797  0.65394058  0.30977987    -0.38300
N2382       N  0.19011031  0.70629248  0.27449055    -0.39900
N2383       N  0.15392035  0.62473496  0.09798714    -0.37600
N2384       N  0.18882900  0.67731705  0.06146602    -0.40000
N2385       N  0.14978272  0.69243440  0.11979237    -0.39800
N2386       N  0.17813748  0.74526079  0.08300031    -0.37400
N2387       N  0.25702763  0.75422544  0.18327686    -0.38500
N2388       N  0.23019107  0.69938611  0.20380917    -0.40100
C2389       C  0.37424304  0.83587240  0.16323742    -0.05100
C2390       C  0.36104228  0.82843665  0.19718822     0.09100
C2391       C  0.36706950  0.82836818  0.24012121    -0.02400
C2392       C  0.38611881  0.83797661  0.25001638    -0.00700
C2393       C  0.39935101  0.84658369  0.21637570    -0.04300
C2394       C  0.39325095  0.84396452  0.17269193     0.02700
C2395       C  0.34107516  0.82224131  0.18851735     0.09500
C2396       C  0.35357464  0.81895510  0.27438859     0.35400
C2397       C  0.40642261  0.84845496  0.13751436     0.38900
C2398       C  0.32989630  0.80635325  0.16343505    -0.04700
C2399       C  0.31173725  0.80182206  0.15169719     0.02500
C2400       C  0.30455279  0.81325498  0.16497855    -0.04300
C2401       C  0.31518195  0.82794286  0.19443972    -0.00500
C2402       C  0.33342635  0.83267217  0.20500885    -0.03100
C2403       C  0.33727626  0.79486136  0.14890029     0.36200
C2404       C  0.30746413  0.83826434  0.21470037     0.39800
C2405       C  0.30080789  0.78555099  0.12527297     0.38900
C2406       C  0.34457966  0.84873926  0.23202005     0.35900
C2407       C  0.36838486  0.83594112  0.11881138     0.36500
C2408       C  0.39190121  0.83964299  0.29510742     0.39800
N2409       N  0.29211911  0.77249326  0.10438205    -0.38300
N2410       N  0.34320233  0.78575944  0.13706164    -0.39900
N2411       N  0.30139332  0.84652847  0.23099210    -0.37600
N2412       N  0.35345316  0.86146252  0.25374921    -0.40000
N2413       N  0.34278208  0.81143430  0.30164868    -0.39800
N2414       N  0.39638686  0.84091006  0.33118125    -0.37400
N2415       N  0.41681228  0.85142686  0.10945023    -0.38500
N2416       N  0.36371214  0.83605764  0.08339287    -0.40100
C2417       C  0.20557203  0.77668379  0.39577688    -0.05100
C2418       C  0.22120165  0.79422165  0.38891768     0.09100
C2419       C  0.23182118  0.80464709  0.42474892    -0.02400
C2420       C  0.22734638  0.79720913  0.46719877    -0.00700
C2421       C  0.21180155  0.77949670  0.47421627    -0.04300
C2422       C  0.20061662  0.76953833  0.43831952     0.02700
C2423       C  0.22702551  0.80115003  0.34351058     0.09500
C2424       C  0.24756025  0.82292340  0.41766837     0.35400
C2425       C  0.18355904  0.75227095  0.44505787     0.38900
C2426       C  0.21839446  0.80936594  0.32067408    -0.04700
C2427       C  0.22260581  0.81410645  0.27632402     0.02500
C2428       C  0.23554785  0.81071378  0.25477724    -0.04300
C2429       C  0.24473434  0.80318461  0.27831640    -0.00500
C2430       C  0.24046982  0.79842940  0.32252619    -0.03100
C2431       C  0.20500770  0.81267667  0.34282081     0.36200
C2432       C  0.25779140  0.79925532  0.25654813     0.39800
C2433       C  0.21371109  0.82255821  0.25295452     0.38900
C2434       C  0.24946223  0.79013247  0.34619531     0.35900
C2435       C  0.19481677  0.76581831  0.35878532     0.36500
C2436       C  0.23933547  0.80750473  0.50311061     0.39800
N2437       N  0.20662306  0.82933292  0.23438903    -0.38300
N2438       N  0.19434309  0.81530089  0.36065603    -0.39900
N2439       N  0.26815760  0.79597936  0.23949950    -0.37600
N2440       N  0.25661443  0.78352443  0.36516593    -0.40000
N2441       N  0.26007805  0.83752455  0.41196436    -0.39800
N2442       N  0.24912213  0.81585886  0.53134150    -0.37400
N2443       N  0.16973852  0.73864698  0.44988735    -0.38500
N2444       N  0.18633102  0.75714629  0.32921188    -0.40100
C2445       C  0.19145017  0.77691105  0.92240614    -0.05100
C2446       C  0.19907677  0.77016845  0.89156995     0.09100
C2447       C  0.21300041  0.76643516  0.90438548    -0.02400
C2448       C  0.22035982  0.77076858  0.94689590    -0.00700
C2449       C  0.21373411  0.77889070  0.97762608    -0.04300
C2450       C  0.19833563  0.78079147  0.96551581     0.02700
C2451       C  0.19326476  0.76785215  0.84473752     0.09500
C2452       C  0.21982885  0.75815337  0.87335097     0.35400
C2453       C  0.18920192  0.78648584  0.99692099     0.38900
C2454       C  0.20447273  0.78147383  0.81428902    -0.04700
C2455       C  0.20044822  0.77865137  0.76937285     0.02500
C2456       C  0.18486612  0.76207161  0.75421619    -0.04300
C2457       C  0.17283946  0.74910596  0.78561336    -0.00500
C2458       C  0.17728239  0.75182701  0.83045509    -0.03100
C2459       C  0.22054568  0.79831258  0.82936599     0.36200
C2460       C  0.15557673  0.73314813  0.77232365     0.39800
C2461       C  0.21289303  0.79284156  0.73934226     0.38900
C2462       C  0.16566095  0.73790818  0.86199213     0.35900
C2463       C  0.17668333  0.78017905  0.90933636     0.36500
C2464       C  0.23440018  0.76621741  0.95869289     0.39800
N2465       N  0.22288852  0.80438274  0.71593586    -0.38300
N2466       N  0.23335288  0.81170193  0.84145196    -0.39900
N2467       N  0.14174458  0.72044726  0.76188426    -0.37600
N2468       N  0.15644551  0.72680798  0.88722580    -0.40000
N2469       N  0.22518007  0.75149379  0.84857281    -0.39800
N2470       N  0.24559857  0.76256085  0.96780914    -0.37400
N2471       N  0.18163472  0.79074411  0.02189177    -0.38500
N2472       N  0.16491155  0.78277843  0.89880640    -0.40100
C2473       C  0.00134351  0.83898327  0.03662578    -0.05100
C2474       C  0.01148664  0.85554759  0.01303604     0.09100
C2475       C  0.00301689  0.85945470  0.97823207    -0.02400
C2476       C  0.98504927  0.84624283  0.96466993    -0.00700
C2477       C  0.97491003  0.82931685  0.98753808    -0.04300
C2478       C  0.98298052  0.82617790  0.02480196     0.02700
C2479       C  0.03155284  0.86822686  0.02265170     0.09500
C2480       C  0.01314609  0.87690863  0.95536828     0.35400
C2481       C  0.97251405  0.80976178  0.05120138     0.38900
C2482       C  0.04506616  0.86902869  0.99370967    -0.04700
C2483       C  0.06399426  0.88040588  0.00304047     0.02500
C2484       C  0.06965767  0.89063083  0.04238724    -0.04300
C2485       C  0.05603233  0.88995396  0.07114007    -0.00500
C2486       C  0.03709017  0.87901227  0.06089971    -0.03100
C2487       C  0.03945433  0.85771449  0.95467463     0.36200
C2488       C  0.06131746  0.89962536  0.11252807     0.39800
C2489       C  0.07755319  0.88151471  0.97174862     0.38900
C2490       C  0.02321320  0.87853862  0.09014751     0.35900
C2491       C  0.01009463  0.83476158  0.07204940     0.36500
C2492       C  0.97774144  0.84969978  0.92519948     0.39800
N2493       N  0.08818913  0.88219076  0.94656360    -0.38300
N2494       N  0.03496629  0.84869324  0.92357535    -0.39900
N2495       N  0.06550731  0.90726901  0.14562431    -0.37600
N2496       N  0.01211272  0.87808171  0.11350146    -0.40000
N2497       N  0.02128365  0.89082781  0.93718992    -0.39800
N2498       N  0.97204302  0.85246355  0.89351455    -0.37400
N2499       N  0.96422799  0.79672657  0.07245608    -0.38500
N2500       N  0.01710958  0.83139753  0.10020526    -0.40100
C2501       C  0.22268290  0.87694939  0.12825991    -0.05100
C2502       C  0.21121241  0.87508161  0.09268687     0.09100
C2503       C  0.20828920  0.86221639  0.05946735    -0.02400
C2504       C  0.21625822  0.85089143  0.06257278    -0.00700
C2505       C  0.22631526  0.85151934  0.10015103    -0.04300
C2506       C  0.22979103  0.86491358  0.13267314     0.02700
C2507       C  0.20118477  0.88572874  0.09138704     0.09500
C2508       C  0.19671919  0.86035392  0.02242563     0.35400
C2509       C  0.23991562  0.86582527  0.17183088     0.38900
C2510       C  0.20591129  0.89977121  0.06024439    -0.04700
C2511       C  0.19465828  0.90774381  0.05461520     0.02500
C2512       C  0.17893479  0.90228660  0.08155535    -0.04300
C2513       C  0.17519640  0.88927571  0.11526175    -0.00500
C2514       C  0.18608754  0.88086967  0.11962734    -0.03100
C2515       C  0.22226205  0.90579580  0.03346340     0.36200
C2516       C  0.16011668  0.88440078  0.14571212     0.39800
C2517       C  0.19874040  0.92068280  0.01918317     0.38900
C2518       C  0.18148534  0.86683809  0.15268738     0.35900
C2519       C  0.22696088  0.89115711  0.16062744     0.36500
C2520       C  0.21474677  0.83917765  0.02617375     0.39800
N2521       N  0.20195154  0.93092824  0.99076359    -0.38300
N2522       N  0.23533551  0.91063804  0.01219573    -0.39900
N2523       N  0.14808765  0.88043656  0.16998859    -0.37600
N2524       N  0.17793446  0.85572618  0.17916759    -0.40000
N2525       N  0.18750151  0.85893389  0.99291414    -0.39800
N2526       N  0.21382161  0.83015992  0.99665457    -0.37400
N2527       N  0.24792869  0.86651917  0.20314977    -0.38500
N2528       N  0.23041929  0.90254241  0.18632679    -0.40100
C2529       C  0.10935554  0.87897963  0.77541614    -0.05100
C2530       C  0.12207869  0.89739804  0.78719134     0.09100
C2531       C  0.12871958  0.91133003  0.75492444    -0.02400
C2532       C  0.12185472  0.90705016  0.71192620    -0.00700
C2533       C  0.10860407  0.88877711  0.70083042    -0.04300
C2534       C  0.10302324  0.87464084  0.73209645     0.02700
C2535       C  0.12766663  0.90224435  0.83397450     0.09500
C2536       C  0.14230654  0.93014315  0.76628628     0.35400
C2537       C  0.09093459  0.85558176  0.71937771     0.38900
C2538       C  0.13932671  0.89684015  0.85452475    -0.04700
C2539       C  0.14356335  0.90049533  0.89930462     0.02500
C2540       C  0.13662465  0.91005582  0.92335155    -0.04300
C2541       C  0.12557088  0.91607604  0.90244930    -0.00500
C2542       C  0.12078894  0.91185252  0.85822539    -0.03100
C2543       C  0.14688411  0.88746238  0.82954613     0.36200
C2544       C  0.11859588  0.92614047  0.92692865     0.39800
C2545       C  0.15514136  0.89455391  0.92061767     0.38900
C2546       C  0.10831366  0.91692597  0.83797745     0.35900
C2547       C  0.10225696  0.86457789  0.80819830     0.36500
C2548       C  0.12811198  0.92147385  0.67928052     0.39800
N2549       N  0.16438201  0.88981731  0.93765675    -0.38300
N2550       N  0.15284267  0.87993411  0.80950665    -0.39900
N2551       N  0.11300134  0.93412773  0.94644006    -0.37600
N2552       N  0.09835628  0.92095638  0.82181497    -0.40000
N2553       N  0.15308682  0.94516443  0.77545921    -0.39800
N2554       N  0.13310987  0.93293769  0.65313092    -0.37400
N2555       N  0.08142746  0.84039636  0.70896886    -0.38500
N2556       N  0.09657988  0.85309088  0.83436761    -0.40100
C2557       C  0.11530759  0.89858448  0.28299560    -0.05100
C2558       C  0.10058228  0.88042823  0.28925516     0.09100
C2559       C  0.09120163  0.86943947  0.25286168    -0.02400
C2560       C  0.09624792  0.87669091  0.21032567    -0.00700
C2561       C  0.11108635  0.89487370  0.20387560    -0.04300
C2562       C  0.12064552  0.90575532  0.24052458     0.02700
C2563       C  0.09472106  0.87312750  0.33448920     0.09500
C2564       C  0.07620723  0.85070918  0.25935941     0.35400
C2565       C  0.13614823  0.92429784  0.23475846     0.38900
C2566       C  0.08097061  0.87524758  0.35594419    -0.04700
C2567       C  0.07665877  0.86999128  0.40000154     0.02500
C2568       C  0.08600088  0.86243997  0.42273251    -0.04300
C2569       C  0.09915532  0.85955525  0.40058180    -0.00500
C2570       C  0.10355753  0.86496120  0.35663200    -0.03100
C2571       C  0.07171520  0.88342230  0.33294851     0.36200
C2572       C  0.10808693  0.85091904  0.42298409     0.39800
C2573       C  0.06347736  0.87348079  0.42263398     0.38900
C2574       C  0.11747220  0.86251338  0.33431960     0.35900
C2575       C  0.12486377  0.90995897  0.32045688     0.36500
C2576       C  0.08545761  0.86577926  0.17344128     0.39800
N2577       N  0.05305429  0.87641822  0.44061439    -0.38300
N2578       N  0.06435945  0.88994386  0.31447898    -0.39900
N2579       N  0.11513425  0.84390528  0.44067836    -0.37600
N2580       N  0.12859250  0.86061852  0.31641256    -0.40000
N2581       N  0.06428181  0.83574618  0.26460804    -0.39800
N2582       N  0.07678718  0.85716938  0.14398900    -0.37400
N2583       N  0.14849834  0.93910538  0.23045691    -0.38500
N2584       N  0.13247962  0.91905763  0.35029608    -0.40100
C2585       C  0.54997280  0.17846518  0.32828956    -0.05100
C2586       C  0.53351356  0.17460561  0.30676278     0.09100
C2587       C  0.52764685  0.16293406  0.27002871    -0.02400
C2588       C  0.53744255  0.15414184  0.25676020    -0.00700
C2589       C  0.55295524  0.15663815  0.28073168    -0.04300
C2590       C  0.55973943  0.16955252  0.31522608     0.02700
C2591       C  0.52078356  0.18030001  0.32660229     0.09500
C2592       C  0.51094528  0.15924607  0.24727155     0.35400
C2593       C  0.57601259  0.17273177  0.33915378     0.38900
C2594       C  0.52094685  0.19649053  0.31328813    -0.04700
C2595       C  0.50773440  0.20071440  0.33021949     0.02500
C2596       C  0.49405406  0.18848434  0.35977049    -0.04300
C2597       C  0.49472804  0.17289447  0.37476246    -0.00500
C2598       C  0.50788076  0.16874897  0.35803815    -0.03100
C2599       C  0.53456364  0.20860668  0.28181076     0.36200
C2600       C  0.48252205  0.16149109  0.40922473     0.39800
C2601       C  0.50808975  0.21745292  0.31677460     0.38900
C2602       C  0.50802493  0.15238654  0.37294782     0.35900
C2603       C  0.55625338  0.19087004  0.36532136     0.36500
C2604       C  0.53160229  0.14260524  0.21814862     0.39800
N2605       N  0.50840851  0.23084779  0.30614305    -0.38300
N2606       N  0.54545921  0.21825422  0.25666274    -0.39900
N2607       N  0.47321306  0.15229859  0.43720110    -0.37600
N2608       N  0.50809616  0.13934158  0.38490601    -0.40000
N2609       N  0.49758213  0.15627473  0.22928962    -0.39800
N2610       N  0.52699131  0.13361309  0.18700760    -0.37400
N2611       N  0.58896530  0.17519449  0.35828247    -0.38500
N2612       N  0.56121133  0.20077290  0.39489165    -0.40100
C2613       C  0.19711597  0.98600208  0.22166629    -0.05100
C2614       C  0.19295531  0.99992745  0.23177728     0.09100
C2615       C  0.18107603  0.00270584  0.20434214    -0.02400
C2616       C  0.17180795  0.99041659  0.16988649    -0.00700
C2617       C  0.17467635  0.97539924  0.16178235    -0.04300
C2618       C  0.18814586  0.97385305  0.18643912     0.02700
C2619       C  0.19873104  0.01018084  0.27407875     0.09500
C2620       C  0.17803486  0.01804826  0.21255239     0.35400
C2621       C  0.19215535  0.95926168  0.17709789     0.38900
C2622       C  0.21630123  0.02604050  0.27924144    -0.04700
C2623       C  0.21977546  0.03792656  0.31523983     0.02500
C2624       C  0.20539614  0.03428891  0.34500303    -0.04300
C2625       C  0.18857169  0.01738037  0.34209756    -0.00500
C2626       C  0.18532230  0.00531867  0.30706690    -0.03100
C2627       C  0.23046021  0.03045700  0.24661980     0.36200
C2628       C  0.17448740  0.01223932  0.37524205     0.39800
C2629       C  0.23779528  0.05425194  0.32039724     0.38900
C2630       C  0.16776481  0.98820736  0.30379665     0.35900
C2631       C  0.21026846  0.98392439  0.24816689     0.36500
C2632       C  0.15932887  0.99339261  0.14288512     0.39800
N2633       N  0.25222208  0.06722414  0.32460367    -0.38300
N2634       N  0.24176011  0.03388087  0.22059030    -0.39900
N2635       N  0.16307246  0.00778418  0.40138524    -0.37600
N2636       N  0.15376707  0.97459409  0.30117504    -0.40000
N2637       N  0.17571976  0.03032357  0.21927046    -0.39800
N2638       N  0.14938996  0.99595190  0.12180289    -0.37400
N2639       N  0.19539570  0.94766233  0.16940035    -0.38500
N2640       N  0.22090292  0.98236370  0.26905154    -0.40100
C2641       C  0.30639635  0.12456530  0.38129595    -0.05100
C2642       C  0.31811682  0.12677982  0.41672155     0.09100
C2643       C  0.31023042  0.11895081  0.45752506    -0.02400
C2644       C  0.29084907  0.10936477  0.46308438    -0.00700
C2645       C  0.27921724  0.10841566  0.42855201    -0.04300
C2646       C  0.28708055  0.11581506  0.38741016     0.02700
C2647       C  0.33875287  0.13837141  0.41174646     0.09500
C2648       C  0.32210867  0.12144863  0.49437042     0.35400
C2649       C  0.27527641  0.11436731  0.35122114     0.38900
C2650       C  0.34705510  0.15763307  0.40659662    -0.04700
C2651       C  0.36637170  0.16869461  0.40144303     0.02500
C2652       C  0.37790162  0.16076446  0.40364154    -0.04300
C2653       C  0.36945046  0.14136566  0.40925797    -0.00500
C2654       C  0.35000465  0.13026652  0.41247959    -0.03100
C2655       C  0.33562509  0.16614064  0.40677294     0.36200
C2656       C  0.38061164  0.13265179  0.41282412     0.39800
C2657       C  0.37409694  0.18817530  0.39216815     0.38900
C2658       C  0.34150660  0.11040532  0.41647047     0.35900
C2659       C  0.31429433  0.13161416  0.33864627     0.36500
C2660       C  0.28297630  0.10112708  0.50498367     0.39800
N2661       N  0.38016512  0.20368322  0.38465123    -0.38300
N2662       N  0.32647466  0.17287427  0.40679092    -0.39900
N2663       N  0.38941582  0.12559136  0.41566257    -0.37600
N2664       N  0.33472205  0.09457021  0.41976590    -0.40000
N2665       N  0.33160029  0.12347528  0.52374949    -0.39800
N2666       N  0.27670124  0.09442014  0.53829893    -0.37400
N2667       N  0.26583863  0.11325260  0.32245761    -0.38500
N2668       N  0.32063113  0.13728706  0.30468019    -0.40100
C2669       C  0.13226868  0.99770073  0.48793030    -0.05100
C2670       C  0.13702359  0.98758005  0.51639331     0.09100
C2671       C  0.15431549  0.99652973  0.53749180    -0.02400
C2672       C  0.16737746  0.01504934  0.52754860    -0.00700
C2673       C  0.16344763  0.02481856  0.49548878    -0.04300
C2674       C  0.14527079  0.01625662  0.47774034     0.02700
C2675       C  0.12407859  0.96733961  0.52367761     0.09500
C2676       C  0.15883531  0.98644799  0.56883593     0.35400
C2677       C  0.14003160  0.02589884  0.44681833     0.38900
C2678       C  0.12295506  0.95432981  0.49276570    -0.04700
C2679       C  0.11253699  0.93526185  0.50192603     0.02500
C2680       C  0.10355619  0.92899915  0.54273444    -0.04300
C2681       C  0.10377279  0.94208739  0.57247981    -0.00500
C2682       C  0.11380243  0.96111337  0.56263416    -0.03100
C2683       C  0.13288404  0.96056799  0.45180130     0.36200
C2684       C  0.09453648  0.93623664  0.61434371     0.39800
C2685       C  0.11090704  0.92210535  0.46894025     0.38900
C2686       C  0.11389529  0.97442826  0.59299889     0.35900
C2687       C  0.11407705  0.98875615  0.46813485     0.36500
C2688       C  0.18482223  0.02395756  0.55082471     0.39800
N2689       N  0.10956083  0.91163514  0.44254113    -0.38300
N2690       N  0.14071320  0.96538890  0.41898132    -0.39900
N2691       N  0.08718559  0.93161153  0.64777075    -0.37600
N2692       N  0.11395900  0.98509500  0.61705779    -0.40000
N2693       N  0.16234926  0.97838168  0.59394030    -0.39800
N2694       N  0.19870926  0.03102494  0.56948534    -0.37400
N2695       N  0.13575612  0.03349529  0.42210702    -0.38500
N2696       N  0.09957342  0.98157754  0.45230871    -0.40100
C2697       C  0.45637626  0.84584324  0.66597574    -0.05100
C2698       C  0.45407141  0.83142931  0.69367513     0.09100
C2699       C  0.44066119  0.82522208  0.72699308    -0.02400
C2700       C  0.43072719  0.83445486  0.73513620    -0.00700
C2701       C  0.43420369  0.85001704  0.70977276    -0.04300
C2702       C  0.44638398  0.85499410  0.67367867     0.02700
C2703       C  0.46664008  0.82364518  0.68885163     0.09500
C2704       C  0.43743262  0.80956017  0.75344160     0.35400
C2705       C  0.44856534  0.86943206  0.64400296     0.38900
C2706       C  0.48305333  0.83108495  0.71340532    -0.04700
C2707       C  0.49674872  0.82655108  0.70306426     0.02500
C2708       C  0.49408410  0.81441909  0.66796991    -0.04300
C2709       C  0.47639623  0.80501458  0.64771058    -0.00500
C2710       C  0.46296538  0.80998955  0.65747159    -0.03100
C2711       C  0.48602161  0.84386763  0.74855937     0.36200
C2712       C  0.47197701  0.79068612  0.61558956     0.39800
C2713       C  0.51352161  0.83438051  0.72885766     0.38900
C2714       C  0.44556258  0.80158307  0.63406741     0.35900
C2715       C  0.46941095  0.85153600  0.63002756     0.36500
C2716       C  0.41767257  0.82841123  0.77103798     0.39800
N2717       N  0.52687508  0.84062701  0.74952836    -0.38300
N2718       N  0.48823654  0.85395617  0.77673612    -0.39900
N2719       N  0.46833403  0.77922121  0.58998048    -0.37600
N2720       N  0.43169097  0.79493815  0.61537816    -0.40000
N2721       N  0.43483705  0.79701008  0.77437837    -0.39800
N2722       N  0.40728292  0.82356994  0.79974313    -0.37400
N2723       N  0.45031521  0.88087607  0.62012050    -0.38500
N2724       N  0.47977868  0.85602295  0.60132910    -0.40100
C2725       C  0.40914989  0.89829020  0.51484731    -0.05100
C2726       C  0.42716685  0.90504772  0.49863526     0.09100
C2727       C  0.44245234  0.91420197  0.52662791    -0.02400
C2728       C  0.43966257  0.91491542  0.57164032    -0.00700
C2729       C  0.42149247  0.90616725  0.58893324    -0.04300
C2730       C  0.40627708  0.89911893  0.55986554     0.02700
C2731       C  0.43001044  0.90050153  0.45343744     0.09500
C2732       C  0.46104125  0.92226656  0.50913294     0.35400
C2733       C  0.38763739  0.89238416  0.57580178     0.38900
C2734       C  0.43298901  0.91261081  0.41870212    -0.04700
C2735       C  0.43710145  0.90874630  0.37670203     0.02500
C2736       C  0.43810185  0.89251078  0.36925225    -0.04300
C2737       C  0.43384327  0.87984097  0.40418553    -0.00500
C2738       C  0.43022329  0.88406067  0.44608017    -0.03100
C2739       C  0.43204549  0.92918045  0.42656913     0.36200
C2740       C  0.43262641  0.86211551  0.39744793     0.39800
C2741       C  0.44069691  0.92185063  0.34194085     0.38900
C2742       C  0.42697567  0.87156404  0.48215656     0.35900
C2743       C  0.39354990  0.88979391  0.48526576     0.36500
C2744       C  0.45553977  0.92498993  0.59991566     0.39800
N2745       N  0.44356564  0.93240842  0.31446162    -0.38300
N2746       N  0.43121964  0.94234986  0.43296582    -0.39900
N2747       N  0.43160296  0.84795657  0.39229607    -0.37600
N2748       N  0.42446930  0.86169704  0.51101220    -0.40000
N2749       N  0.47584255  0.92869605  0.49504359    -0.39800
N2750       N  0.46818445  0.93310532  0.62244403    -0.37400
N2751       N  0.37276878  0.88726711  0.58823791    -0.38500
N2752       N  0.38113198  0.88301364  0.46160365    -0.40100
C2753       C  0.45489092  0.91463099  0.93087613    -0.05100
C2754       C  0.45765039  0.90069994  0.94882733     0.09100
C2755       C  0.45622828  0.88638832  0.92198175    -0.02400
C2756       C  0.45107722  0.88548513  0.87799582    -0.00700
C2757       C  0.44642306  0.89832619  0.86127662    -0.04300
C2758       C  0.44902631  0.91332626  0.88734130     0.02700
C2759       C  0.46041942  0.90032318  0.99682065     0.09500
C2760       C  0.45910532  0.87206501  0.94016582     0.35400
C2761       C  0.44428826  0.92660938  0.87077445     0.38900
C2762       C  0.44545167  0.89558059  0.02527707    -0.04700
C2763       C  0.44809488  0.89656551  0.07072306     0.02500
C2764       C  0.46547032  0.90074375  0.08835376    -0.04300
C2765       C  0.48040558  0.90518244  0.05935273    -0.00500
C2766       C  0.47790600  0.90524152  0.01388802    -0.03100
C2767       C  0.42715212  0.88933346  0.00754426     0.36200
C2768       C  0.49862235  0.91041088  0.07591357     0.39800
C2769       C  0.43277088  0.89339508  0.09871909     0.38900
C2770       C  0.49336129  0.91045130  0.98448966     0.35900
C2771       C  0.45718833  0.92980651  0.95806603     0.36500
C2772       C  0.45054653  0.87131458  0.84984978     0.39800
N2773       N  0.42049932  0.89111611  0.12054452    -0.38300
N2774       N  0.41257466  0.88422995  0.99329749    -0.39900
N2775       N  0.51317253  0.91454485  0.08892514    -0.37600
N2776       N  0.50565401  0.91455433  0.96097564    -0.40000
N2777       N  0.46133654  0.86059590  0.95465930    -0.39800
N2778       N  0.45040139  0.86016062  0.82736435    -0.37400
N2779       N  0.44029833  0.93715542  0.85825690    -0.38500
N2780       N  0.45896749  0.94182769  0.97998050    -0.40100
C2781       C  0.30924971  0.86893943  0.95421140    -0.05100
C2782       C  0.32232407  0.86374969  0.94247354     0.09100
C2783       C  0.32258173  0.84915973  0.96463541    -0.02400
C2784       C  0.31021955  0.84011374  0.99904498    -0.00700
C2785       C  0.29653498  0.84471238  0.00996862    -0.04300
C2786       C  0.29625798  0.85935210  0.98762244     0.02700
C2787       C  0.33607945  0.87339068  0.90689612     0.09500
C2788       C  0.33552838  0.84325878  0.95159612     0.35400
C2789       C  0.28242697  0.86435092  0.99813239     0.38900
C2790       C  0.35505955  0.88370363  0.91724675    -0.04700
C2791       C  0.36843335  0.88809124  0.88446977     0.02500
C2792       C  0.36289778  0.88310598  0.84079445    -0.04300
C2793       C  0.34396987  0.87520624  0.82974143    -0.00500
C2794       C  0.33055612  0.86979556  0.86289476    -0.03100
C2795       C  0.36073732  0.88877122  0.96218383     0.36200
C2796       C  0.33805487  0.87151839  0.78458338     0.39800
C2797       C  0.38784266  0.89743260  0.89596350     0.38900
C2798       C  0.31107042  0.85943244  0.85188959     0.35900
C2799       C  0.30905686  0.88399712  0.93151577     0.36500
C2800       C  0.31222146  0.82652576  0.02411153     0.39800
N2801       N  0.40327618  0.90483247  0.90564531    -0.38300
N2802       N  0.36521678  0.89274610  0.99806359    -0.39900
N2803       N  0.33326176  0.86865393  0.74863327    -0.37600
N2804       N  0.29554350  0.85117592  0.84300473    -0.40000
N2805       N  0.34585674  0.83860085  0.94116816    -0.39800
N2806       N  0.31396896  0.81577196  0.04394503    -0.37400
N2807       N  0.27143001  0.86838310  0.00659976    -0.38500
N2808       N  0.30882816  0.89592274  0.91313541    -0.40100
C2809       C  0.28143244  0.81415295  0.65217243    -0.05100
C2810       C  0.29155516  0.80503107  0.65756757     0.09100
C2811       C  0.28264477  0.78573135  0.65323291    -0.02400
C2812       C  0.26364251  0.77551397  0.64297730    -0.00700
C2813       C  0.25337213  0.78461179  0.63662880    -0.04300
C2814       C  0.26250231  0.80409712  0.64151114     0.02700
C2815       C  0.31143900  0.81584339  0.67041236     0.09500
C2816       C  0.29306596  0.77639923  0.66012728     0.35400
C2817       C  0.25275159  0.81412118  0.63463868     0.38900
C2818       C  0.31614901  0.81882250  0.71486749    -0.04700
C2819       C  0.33463791  0.83052861  0.72738830     0.02500
C2820       C  0.34845094  0.84014401  0.69529702    -0.04300
C2821       C  0.34391761  0.83596473  0.65083959    -0.00500
C2822       C  0.32543205  0.82379962  0.63843923    -0.03100
C2823       C  0.30178099  0.81031207  0.74775337     0.36200
C2824       C  0.35839397  0.84334716  0.61814479     0.39800
C2825       C  0.33916142  0.83292108  0.77348496     0.38900
C2826       C  0.32071692  0.81954349  0.59283523     0.35900
C2827       C  0.29056583  0.83399324  0.65817504     0.36500
C2828       C  0.25466309  0.75557321  0.64052812     0.39800
N2829       N  0.34269216  0.83460595  0.81026724    -0.38300
N2830       N  0.29029861  0.80359361  0.77391147    -0.39900
N2831       N  0.36994666  0.84888193  0.59203351    -0.37600
N2832       N  0.31693518  0.81604091  0.55646427    -0.40000
N2833       N  0.30143046  0.76901673  0.66577444    -0.39800
N2834       N  0.24755281  0.73966940  0.63860546    -0.37400
N2835       N  0.24512328  0.82227094  0.62931746    -0.38500
N2836       N  0.29786740  0.84979049  0.66318219    -0.40100
C2837       C  0.61637199  0.15460580  0.79357156    -0.05100
C2838       C  0.62447953  0.17056384  0.81978601     0.09100
C2839       C  0.61383058  0.17850820  0.83299092    -0.02400
C2840       C  0.59497905  0.17020950  0.82096918    -0.00700
C2841       C  0.58666767  0.15377710  0.79617858    -0.04300
C2842       C  0.59757593  0.14614081  0.78219655     0.02700
C2843       C  0.64346142  0.17724446  0.83770223     0.09500
C2844       C  0.62211376  0.19477066  0.86040446     0.35400
C2845       C  0.58946204  0.12932136  0.75648681     0.38900
C2846       C  0.65931674  0.19153261  0.81710851    -0.04700
C2847       C  0.67718427  0.19581901  0.83093296     0.02500
C2848       C  0.67919908  0.18540222  0.86431558    -0.04300
C2849       C  0.66328164  0.17109072  0.88471120    -0.00500
C2850       C  0.64556198  0.16744468  0.87240022    -0.03100
C2851       C  0.65718714  0.20141390  0.78098810     0.36200
C2852       C  0.66490319  0.15937534  0.91700224     0.39800
C2853       C  0.69347833  0.21050380  0.81001438     0.38900
C2854       C  0.62932526  0.15319049  0.89470440     0.35900
C2855       C  0.62731393  0.14647844  0.77963764     0.36500
C2856       C  0.58387160  0.17788070  0.83647407     0.39800
N2857       N  0.70654270  0.22221114  0.79342147    -0.38300
N2858       N  0.65545746  0.20926517  0.75207578    -0.39900
N2859       N  0.66557979  0.14946642  0.94214448    -0.37600
N2860       N  0.61635500  0.14188854  0.91247762    -0.40000
N2861       N  0.62875452  0.20774616  0.88234869    -0.39800
N2862       N  0.57494023  0.18391339  0.84896870    -0.37400
N2863       N  0.58301204  0.11585009  0.73627808    -0.38500
N2864       N  0.63605464  0.13999910  0.76876566    -0.40100
C2865       C  0.45422091  0.02272461  0.78225691    -0.05100
C2866       C  0.45957764  0.01400667  0.75088968     0.09100
C2867       C  0.47462883  0.02476329  0.72310309    -0.02400
C2868       C  0.48515469  0.04402092  0.72862583    -0.00700
C2869       C  0.48012611  0.05296767  0.76073507    -0.04300
C2870       C  0.46420608  0.04212131  0.78673171     0.02700
C2871       C  0.45028386  0.99340098  0.74887839     0.09500
C2872       C  0.47954516  0.01585780  0.68924890     0.35400
C2873       C  0.45855766  0.05061724  0.81995028     0.38900
C2874       C  0.43252803  0.98290147  0.73059869    -0.04700
C2875       C  0.42421856  0.96355079  0.72710764     0.02500
C2876       C  0.43386502  0.95452747  0.74090009    -0.04300
C2877       C  0.45180984  0.96527098  0.75906583    -0.00500
C2878       C  0.45974421  0.98449281  0.76372767    -0.03100
C2879       C  0.42304630  0.99214222  0.71413301     0.36200
C2880       C  0.46242260  0.95679910  0.77289526     0.39800
C2881       C  0.40609515  0.95319599  0.70723882     0.38900
C2882       C  0.47788448  0.99524759  0.78342527     0.35900
C2883       C  0.43878415  0.01159823  0.81103300     0.36500
C2884       C  0.50149650  0.05430671  0.70174595     0.39800
N2885       N  0.39162213  0.94498103  0.69145670    -0.38300
N2886       N  0.41551492  0.99954502  0.70100944    -0.39900
N2887       N  0.47109209  0.95023333  0.78361080    -0.37600
N2888       N  0.49236988  0.00383701  0.79893135    -0.40000
N2889       N  0.48347188  0.00875473  0.66233172    -0.39800
N2890       N  0.51469638  0.06214463  0.68067296    -0.37400
N2891       N  0.45393378  0.05729937  0.84643619    -0.38500
N2892       N  0.42645304  0.00264773  0.83386087    -0.40100
C2893       C  0.55292728  0.11473992  0.05410050    -0.05100
C2894       C  0.53362942  0.10493324  0.04863229     0.09100
C2895       C  0.52186288  0.09741863  0.08482416    -0.02400
C2896       C  0.52938273  0.09974455  0.12690869    -0.00700
C2897       C  0.54883636  0.11003149  0.13295928    -0.04300
C2898       C  0.56056118  0.11758218  0.09605408     0.02700
C2899       C  0.52588583  0.10348513  0.00443481     0.09500
C2900       C  0.50198745  0.08777341  0.07868026     0.35400
C2901       C  0.58051230  0.12848362  0.10055949     0.38900
C2902       C  0.52120571  0.08789044  0.97848702    -0.04700
C2903       C  0.51676446  0.08786960  0.93431861     0.02500
C2904       C  0.51726850  0.10357831  0.91607589    -0.04300
C2905       C  0.52129185  0.11891309  0.94264358    -0.00500
C2906       C  0.52528268  0.11870297  0.98699309    -0.03100
C2907       C  0.52167806  0.07221500  0.99692802     0.36200
C2908       C  0.52303502  0.13557596  0.92379592     0.39800
C2909       C  0.51202498  0.07184499  0.90743761     0.38900
C2910       C  0.52964497  0.13449420  0.01440900     0.35900
C2911       C  0.56492971  0.12216664  0.01625868     0.36500
C2912       C  0.51689801  0.09231344  0.16384416     0.39800
N2913       N  0.50828460  0.05911729  0.88586229    -0.38300
N2914       N  0.52207839  0.05973527  0.01173170    -0.39900
N2915       N  0.52477925  0.14906055  0.90910751    -0.37600
N2916       N  0.53313862  0.14705275  0.03637457    -0.40000
N2917       N  0.48614352  0.08015560  0.07370841    -0.39800
N2918       N  0.50688588  0.08637776  0.19319028    -0.37400
N2919       N  0.59641595  0.13741259  0.10359812    -0.38500
N2920       N  0.57443044  0.12806319  0.98604199    -0.40100
C2921       C  0.56555776  0.12067038  0.57729782    -0.05100
C2922       C  0.55068212  0.10769466  0.55178477     0.09100
C2923       C  0.53281229  0.09762331  0.56987987    -0.02400
C2924       C  0.52969873  0.10094836  0.61311306    -0.00700
C2925       C  0.54459378  0.11387261  0.63870718    -0.04300
C2926       C  0.56250555  0.12380016  0.62077338     0.02700
C2927       C  0.55348417  0.10610010  0.50449808     0.09500
C2928       C  0.51758267  0.08424183  0.54350737     0.35400
C2929       C  0.57760422  0.13779163  0.64636913     0.38900
C2930       C  0.56067268  0.09505248  0.48990754    -0.04700
C2931       C  0.56412944  0.09436120  0.44518677     0.02500
C2932       C  0.55990939  0.10439914  0.41462489    -0.04300
C2933       C  0.55211122  0.11502778  0.42966955    -0.00500
C2934       C  0.54925343  0.11610266  0.47446642    -0.03100
C2935       C  0.56447595  0.08439253  0.52110317     0.36200
C2936       C  0.54727800  0.12526473  0.39959313     0.39800
C2937       C  0.57172070  0.08301571  0.43098637     0.38900
C2938       C  0.54229352  0.12785943  0.48994882     0.35900
C2939       C  0.58384550  0.13120847  0.55820650     0.36500
C2940       C  0.51099283  0.09210733  0.63023742     0.39800
N2941       N  0.57790114  0.07402406  0.42006913    -0.38300
N2942       N  0.56744958  0.07585781  0.54601086    -0.39900
N2943       N  0.54308506  0.13325757  0.37593908    -0.37600
N2944       N  0.53683085  0.13728486  0.50231976    -0.40000
N2945       N  0.50546019  0.07356220  0.52241722    -0.39800
N2946       N  0.49606980  0.08524258  0.64377389    -0.37400
N2947       N  0.58968465  0.14911960  0.66639579    -0.38500
N2948       N  0.59839751  0.13957926  0.54278988    -0.40100
C2949       C  0.45262885  0.12296708  0.64184855    -0.05100
C2950       C  0.46101289  0.13008058  0.60117152     0.09100
C2951       C  0.47884360  0.13303454  0.59248026    -0.02400
C2952       C  0.48891965  0.13042730  0.62559831    -0.00700
C2953       C  0.48126078  0.12500304  0.66787954    -0.04300
C2954       C  0.46271653  0.12050745  0.67530160     0.02700
C2955       C  0.45281159  0.13786804  0.57078161     0.09500
C2956       C  0.48724238  0.13975365  0.55003147     0.35400
C2957       C  0.45432941  0.11459679  0.71803386     0.38900
C2958       C  0.45498146  0.15527510  0.58024107    -0.04700
C2959       C  0.45033805  0.16441694  0.54888921     0.02500
C2960       C  0.44455736  0.15679261  0.50685799    -0.04300
C2961       C  0.44009719  0.13832637  0.49944559    -0.00500
C2962       C  0.44444980  0.12895880  0.53135787    -0.03100
C2963       C  0.46305710  0.16430933  0.62139035     0.36200
C2964       C  0.43214253  0.12930903  0.45833934     0.39800
C2965       C  0.45112927  0.18150304  0.56064852     0.38900
C2966       C  0.44126934  0.11058312  0.52291717     0.35900
C2967       C  0.43396642  0.11924388  0.64988203     0.36500
C2968       C  0.50729373  0.13365917  0.61590271     0.39800
N2969       N  0.45151954  0.19485964  0.57171727    -0.38300
N2970       N  0.46956607  0.17151882  0.65409303    -0.39900
N2971       N  0.42585105  0.12204547  0.42554749    -0.37600
N2972       N  0.43880671  0.09593715  0.51622096    -0.40000
N2973       N  0.49399630  0.14508570  0.51623978    -0.39800
N2974       N  0.52194043  0.13640447  0.60741296    -0.37400
N2975       N  0.44758774  0.10988044  0.75207082    -0.38500
N2976       N  0.41910237  0.11634557  0.65619067    -0.40100
C2977       C  0.49697220  0.21801094  0.89814267    -0.05100
C2978       C  0.49333502  0.20811113  0.85867895     0.09100
C2979       C  0.48195345  0.20968840  0.82707680    -0.02400
C2980       C  0.47341989  0.22021510  0.83587184    -0.00700
C2981       C  0.47630431  0.22938208  0.87624852    -0.04300
C2982       C  0.48845632  0.22858159  0.90696785     0.02700
C2983       C  0.50046113  0.19506884  0.85115022     0.09500
C2984       C  0.47868090  0.20007723  0.78582084     0.35400
C2985       C  0.49132572  0.23772698  0.94875494     0.38900
C2986       C  0.49113267  0.17726240  0.86950197    -0.04700
C2987       C  0.49617059  0.16404864  0.85799851     0.02500
C2988       C  0.51055897  0.16841674  0.82725306    -0.04300
C2989       C  0.52105569  0.18698994  0.81238460    -0.00500
C2990       C  0.51581951  0.20008004  0.82387308    -0.03100
C2991       C  0.47591200  0.17238164  0.89946284     0.36200
C2992       C  0.53706016  0.19285372  0.78445619     0.39800
C2993       C  0.48653784  0.14604563  0.87860059     0.38900
C2994       C  0.52591876  0.21868350  0.80659866     0.35900
C2995       C  0.50913267  0.21691503  0.93006443     0.36500
C2996       C  0.46155450  0.22151213  0.80338041     0.39800
N2997       N  0.47886293  0.13174325  0.89529063    -0.38300
N2998       N  0.46382133  0.16855720  0.92343804    -0.39900
N2999       N  0.54995705  0.19769271  0.76252942    -0.37600
N3000       N  0.53389941  0.23350858  0.79272965    -0.40000
N3001       N  0.47617165  0.19246022  0.75287151    -0.39800
N3002       N  0.45215761  0.22253174  0.77724577    -0.37400
N3003       N  0.49352864  0.24498068  0.98212614    -0.38500
N3004       N  0.51883978  0.21601539  0.95550847    -0.40100
C3005       C  0.51522428  0.33816528  0.82145994    -0.05100
C3006       C  0.50995993  0.35135318  0.81244117     0.09100
C3007       C  0.49112257  0.34608306  0.81271765    -0.02400
C3008       C  0.47765632  0.32812387  0.82555704    -0.00700
C3009       C  0.48289823  0.31491934  0.83696608    -0.04300
C3010       C  0.50176211  0.31994573  0.83293522     0.02700
C3011       C  0.52420765  0.37112686  0.80469305     0.09500
C3012       C  0.48568185  0.35946000  0.80099582     0.35400
C3013       C  0.50745126  0.30645620  0.84063781     0.38900
C3014       C  0.53061171  0.37748178  0.76214339    -0.04700
C3015       C  0.54261605  0.39646133  0.75440821     0.02500
C3016       C  0.54820862  0.40921964  0.78929476    -0.04300
C3017       C  0.54222638  0.40273865  0.83206464    -0.00500
C3018       C  0.53026229  0.38376376  0.83970997    -0.03100
C3019       C  0.52423157  0.36452639  0.72613365     0.36200
C3020       C  0.54843492  0.41560409  0.86828657     0.39800
C3021       C  0.54833407  0.40293545  0.71013306     0.38900
C3022       C  0.52376496  0.37728227  0.88355404     0.35900
C3023       C  0.53461270  0.34355083  0.81998536     0.36500
C3024       C  0.45866270  0.32397174  0.82994156     0.39800
N3025       N  0.55287456  0.40810589  0.67482773    -0.38300
N3026       N  0.51907530  0.35416896  0.69744432    -0.39900
N3027       N  0.55340114  0.42585387  0.89718893    -0.37600
N3028       N  0.51861356  0.37222987  0.91862004    -0.40000
N3029       N  0.48138690  0.37013080  0.79147714    -0.39800
N3030       N  0.44356758  0.32079216  0.83353892    -0.37400
N3031       N  0.51200107  0.29569771  0.84673165    -0.38500
N3032       N  0.55010460  0.34791198  0.81887154    -0.40100
C3033       C  0.42872468  0.25018014  0.68305589    -0.05100
C3034       C  0.42366610  0.23234004  0.66855326     0.09100
C3035       C  0.41564149  0.21741059  0.69784281    -0.02400
C3036       C  0.41341237  0.22043014  0.74207262    -0.00700
C3037       C  0.42022996  0.23863646  0.75791410    -0.04300
C3038       C  0.42738365  0.25346525  0.72759963     0.02700
C3039       C  0.42826126  0.22959676  0.62314690     0.09500
C3040       C  0.41032396  0.19900745  0.68268819     0.35400
C3041       C  0.43436405  0.27233265  0.74179701     0.38900
C3042       C  0.44645396  0.23404173  0.61308019    -0.04700
C3043       C  0.45110616  0.23165404  0.57039582     0.02500
C3044       C  0.43730590  0.22397773  0.53745399    -0.04300
C3045       C  0.41895098  0.21941180  0.54813019    -0.00500
C3046       C  0.41460701  0.22257847  0.59057353    -0.03100
C3047       C  0.46035011  0.24073434  0.64720829     0.36200
C3048       C  0.40415626  0.21050094  0.51656814     0.39800
C3049       C  0.47014270  0.23679527  0.56134636     0.38900
C3050       C  0.39600540  0.21847196  0.60107334     0.35900
C3051       C  0.43588149  0.26527346  0.65200662     0.36500
C3052       C  0.40406329  0.20468311  0.77102606     0.39800
N3053       N  0.48530042  0.24062855  0.55497451    -0.38300
N3054       N  0.47136557  0.24598227  0.67449838    -0.39900
N3055       N  0.39218900  0.20328440  0.49182611    -0.37600
N3056       N  0.38120345  0.21526568  0.60959238    -0.40000
N3057       N  0.40615607  0.18434846  0.67062569    -0.39800
N3058       N  0.39659152  0.19211810  0.79407556    -0.37400
N3059       N  0.43998239  0.28745451  0.75254855    -0.38500
N3060       N  0.44151866  0.27724167  0.62709170    -0.40100
C3061       C  0.41579179  0.20314512  0.19416186    -0.05100
C3062       C  0.43095642  0.20677354  0.16744920     0.09100
C3063       C  0.44557736  0.20492074  0.18436712    -0.02400
C3064       C  0.44545860  0.20023622  0.22851130    -0.00700
C3065       C  0.43083637  0.19776885  0.25629353    -0.04300
C3066       C  0.41565729  0.19856265  0.23839250     0.02700
C3067       C  0.43216855  0.21376957  0.12218554     0.09500
C3068       C  0.46104910  0.20845013  0.15649026     0.35400
C3069       C  0.39962484  0.19416831  0.26507223     0.38900
C3070       C  0.44007912  0.23285173  0.11515635    -0.04700
C3071       C  0.44185033  0.23975882  0.07253992     0.02500
C3072       C  0.43568691  0.22755457  0.03640836    -0.04300
C3073       C  0.42786054  0.20837797  0.04370639    -0.00500
C3074       C  0.42600007  0.20153312  0.08653070    -0.03100
C3075       C  0.44650663  0.24540356  0.15204537     0.36200
C3076       C  0.42259745  0.19572863  0.00719210     0.39800
C3077       C  0.44990128  0.25947639  0.06641041     0.38900
C3078       C  0.41791836  0.18190390  0.09407046     0.35900
C3079       C  0.40049919  0.20450155  0.17616361     0.36500
C3080       C  0.46069135  0.19847396  0.24521949     0.39800
N3081       N  0.45649031  0.27524885  0.06217404    -0.38300
N3082       N  0.45161300  0.25537126  0.18149920    -0.39900
N3083       N  0.41850056  0.18564482  0.97807328    -0.37600
N3084       N  0.41146471  0.16624887  0.10020461    -0.40000
N3085       N  0.47337875  0.21131995  0.13417595    -0.39800
N3086       N  0.47276643  0.19682671  0.25808998    -0.37400
N3087       N  0.38676914  0.19055236  0.28619235    -0.38500
N3088       N  0.38832832  0.20560930  0.16171793    -0.40100
C3089       C  0.13482818  0.00556847  0.00921316    -0.05100
C3090       C  0.14917130  0.01534194  0.97900819     0.09100
C3091       C  0.15760019  0.00646424  0.95816733    -0.02400
C3092       C  0.15295040  0.98845567  0.97059181    -0.00700
C3093       C  0.14018000  0.97938568  0.00501966    -0.04300
C3094       C  0.13021477  0.98762467  0.02211375     0.02700
C3095       C  0.15648607  0.03547138  0.97204579     0.09500
C3096       C  0.17165562  0.01620159  0.92519256     0.35400
C3097       C  0.11588207  0.97831918  0.05473492     0.38900
C3098       C  0.16812993  0.04820668  0.00372518    -0.04700
C3099       C  0.17556411  0.06725887  0.99713317     0.02500
C3100       C  0.17221688  0.07380787  0.95765801    -0.04300
C3101       C  0.16025660  0.06094588  0.92623132    -0.00500
C3102       C  0.15215593  0.04184381  0.93389745    -0.03100
C3103       C  0.17295054  0.04168474  0.04258024     0.36200
C3104       C  0.15709315  0.06722565  0.88480777     0.39800
C3105       C  0.18652710  0.08008370  0.03131914     0.38900
C3106       C  0.13966484  0.02868042  0.90212978     0.35900
C3107       C  0.12539787  0.01441177  0.02848166     0.36500
C3108       C  0.16145803  0.97940217  0.94788183     0.39800
N3109       N  0.19519123  0.09027639  0.05867834    -0.38300
N3110       N  0.17687365  0.03646879  0.07339355    -0.39900
N3111       N  0.15462641  0.07220483  0.85166167    -0.37600
N3112       N  0.12969502  0.01814647  0.87685180    -0.40000
N3113       N  0.18282575  0.02397640  0.89882708    -0.39800
N3114       N  0.16825162  0.97220650  0.92973034    -0.37400
N3115       N  0.10445705  0.97099506  0.08081180    -0.38500
N3116       N  0.11795519  0.02153037  0.04388327    -0.40100
C3117       C  0.34213313  0.20635122  0.94555821    -0.05100
C3118       C  0.33231968  0.21198037  0.91817192     0.09100
C3119       C  0.34207123  0.22626480  0.88776127    -0.02400
C3120       C  0.36145985  0.23460929  0.88407159    -0.00700
C3121       C  0.37136927  0.22907564  0.91166823    -0.04300
C3122       C  0.36157010  0.21493702  0.94259085     0.02700
C3123       C  0.31162350  0.20241395  0.92071356     0.09500
C3124       C  0.33207372  0.23222033  0.85987316     0.35400
C3125       C  0.37146816  0.20934030  0.97183017     0.38900
C3126       C  0.30291923  0.20592079  0.95588972    -0.04700
C3127       C  0.28352293  0.19554445  0.96080131     0.02500
C3128       C  0.27262454  0.18174575  0.93006057    -0.04300
C3129       C  0.28132259  0.17898677  0.89346753    -0.00500
C3130       C  0.30073069  0.18918126  0.88904180    -0.03100
C3131       C  0.31404187  0.21998571  0.98759189     0.36200
C3132       C  0.27032526  0.16566286  0.86014496     0.39800
C3133       C  0.27496422  0.19835922  0.99894697     0.38900
C3134       C  0.30956621  0.18574459  0.85236640     0.35900
C3135       C  0.33211889  0.19147725  0.97642364     0.36500
C3136       C  0.37103973  0.24816681  0.85008150     0.39800
N3137       N  0.26811926  0.20052911  0.02945246    -0.38300
N3138       N  0.32295844  0.23120446  0.01285998    -0.39900
N3139       N  0.26159980  0.15505184  0.83353894    -0.37600
N3140       N  0.31662369  0.18305462  0.82306017    -0.40000
N3141       N  0.32408620  0.23694161  0.83758689    -0.39800
N3142       N  0.37868147  0.25888041  0.82279664    -0.37400
N3143       N  0.37934021  0.20486312  0.99519349    -0.38500
N3144       N  0.32404746  0.17961525  0.00099726    -0.40100
C3145       C  0.14617015  0.16479520  0.03652862    -0.05100
C3146       C  0.12928172  0.15736888  0.01395852     0.09100
C3147       C  0.12488050  0.14357487  0.98239482    -0.02400
C3148       C  0.13782434  0.13808464  0.97122812    -0.00700
C3149       C  0.15564915  0.14684449  0.99078502    -0.04300
C3150       C  0.15919499  0.15944688  0.02550348     0.02700
C3151       C  0.11674963  0.16506033  0.02170531     0.09500
C3152       C  0.10723789  0.13558305  0.96013592     0.35400
C3153       C  0.17623562  0.16703674  0.05027353     0.38900
C3154       C  0.11812290  0.17928556  0.99467882    -0.04700
C3155       C  0.10802889  0.18816195  0.00462189     0.02500
C3156       C  0.09663916  0.18309134  0.04225670    -0.04300
C3157       C  0.09443616  0.16802771  0.06777482    -0.00500
C3158       C  0.10449215  0.15909569  0.05748519    -0.03100
C3159       C  0.13050815  0.18523972  0.95741618     0.36200
C3160       C  0.08266695  0.16229967  0.10607838     0.39800
C3161       C  0.10948601  0.20261442  0.97601859     0.38900
C3162       C  0.10277086  0.14415773  0.08459070     0.35900
C3163       C  0.15045138  0.17860144  0.07002049     0.36500
C3164       C  0.13275661  0.12384950  0.93850794     0.39800
N3165       N  0.11068590  0.21418078  0.95332422    -0.38300
N3166       N  0.14042716  0.18996881  0.92779393    -0.39900
N3167       N  0.07327139  0.15770299  0.13664032    -0.37600
N3168       N  0.10145506  0.13225860  0.10621592    -0.40000
N3169       N  0.09319466  0.12930004  0.94227090    -0.39800
N3170       N  0.12858267  0.11243158  0.91249299    -0.37400
N3171       N  0.18980147  0.17313047  0.07011276    -0.38500
N3172       N  0.15382097  0.18963503  0.09661829    -0.40100
C3173       C  0.21843339  0.10993291  0.22573343    -0.05100
C3174       C  0.22029693  0.12741775  0.21922189     0.09100
C3175       C  0.22116628  0.13817881  0.25546874    -0.02400
C3176       C  0.21971770  0.13126101  0.29817949    -0.00700
C3177       C  0.21734155  0.11346980  0.30474762    -0.04300
C3178       C  0.21709036  0.10303817  0.26821123     0.02700
C3179       C  0.22075440  0.13401400  0.17373114     0.09500
C3180       C  0.22323103  0.15622566  0.24863338     0.35400
C3181       C  0.21576535  0.08526707  0.27406340     0.38900
C3182       C  0.20417284  0.13047484  0.15341276    -0.04700
C3183       C  0.20402705  0.13413403  0.10861011     0.02500
C3184       C  0.22048738  0.14133276  0.08394049    -0.04300
C3185       C  0.23717749  0.14540225  0.10457265    -0.00500
C3186       C  0.23732628  0.14186130  0.14945362    -0.03100
C3187       C  0.18713309  0.12237563  0.17836248     0.36200
C3188       C  0.25415044  0.15305337  0.07944410     0.39800
C3189       C  0.18672034  0.12940622  0.08736645     0.38900
C3190       C  0.25442356  0.14584315  0.17058006     0.35900
C3191       C  0.21756841  0.09886887  0.18841450     0.36500
C3192       C  0.21995243  0.14219308  0.33511677     0.39800
N3193       N  0.17287130  0.12548629  0.07046678    -0.38300
N3194       N  0.17356761  0.11590355  0.19837106    -0.39900
N3195       N  0.26764968  0.15910528  0.05925707    -0.37600
N3196       N  0.26804828  0.14901200  0.18754208    -0.40000
N3197       N  0.22484992  0.17061407  0.24312238    -0.39800
N3198       N  0.22016379  0.15093230  0.36456937    -0.37400
N3199       N  0.21467971  0.07105599  0.27823363    -0.38500
N3200       N  0.21685602  0.09007700  0.15859414    -0.40100
C3201       C  0.22738861  0.10335413  0.75278176    -0.05100
C3202       C  0.22539775  0.11285895  0.71730471     0.09100
C3203       C  0.21987725  0.12596299  0.72452562    -0.02400
C3204       C  0.21536697  0.12887553  0.76687947    -0.00700
C3205       C  0.21666936  0.11889142  0.80265356    -0.04300
C3206       C  0.22314414  0.10639900  0.79541118     0.02700
C3207       C  0.22687078  0.10749989  0.67178580     0.09500
C3208       C  0.21845491  0.13618433  0.68800603     0.35400
C3209       C  0.22458340  0.09593724  0.83128591     0.38900
C3210       C  0.21111165  0.09295945  0.65189159    -0.04700
C3211       C  0.21182660  0.08831910  0.60816304     0.02500
C3212       C  0.22833804  0.09830958  0.58389318    -0.04300
C3213       C  0.24416694  0.11285457  0.60395825    -0.00500
C3214       C  0.24342241  0.11741120  0.64791296    -0.03100
C3215       C  0.19389136  0.08330540  0.67608432     0.36200
C3216       C  0.26118550  0.12318150  0.57941332     0.39800
C3217       C  0.19513395  0.07409365  0.58745162     0.38900
C3218       C  0.25947813  0.13258879  0.66833804     0.35900
C3219       C  0.23331060  0.09003836  0.74501884     0.36500
C3220       C  0.20936160  0.14220121  0.77302258     0.39800
N3221       N  0.18172015  0.06282761  0.57116370    -0.38300
N3222       N  0.18018368  0.07575050  0.69546730    -0.39900
N3223       N  0.27477430  0.13149474  0.55990503    -0.37600
N3224       N  0.27225595  0.14475136  0.68462240    -0.40000
N3225       N  0.21738521  0.14441384  0.65901510    -0.39800
N3226       N  0.20442320  0.15276964  0.77670852    -0.37400
N3227       N  0.22576377  0.08758458  0.85984673    -0.38500
N3228       N  0.23801771  0.07941559  0.73861963    -0.40100
C3229       C  0.46108187  0.62488563  0.16675989    -0.05100
C3230       C  0.45762447  0.63758077  0.18890960     0.09100
C3231       C  0.44369543  0.63120645  0.22104697    -0.02400
C3232       C  0.43384392  0.61231437  0.23253488    -0.00700
C3233       C  0.43786613  0.59959926  0.21175657    -0.04300
C3234       C  0.45125356  0.60602526  0.17786748     0.02700
C3235       C  0.46975853  0.65780183  0.18017274     0.09500
C3236       C  0.43989360  0.64425515  0.24306561     0.35400
C3237       C  0.45514345  0.59336733  0.15414477     0.38900
C3238       C  0.46689054  0.66591171  0.14300179    -0.04700
C3239       C  0.48023408  0.68402951  0.13048079     0.02500
C3240       C  0.49662520  0.69420655  0.15522886    -0.04300
C3241       C  0.49871671  0.68643323  0.19434503    -0.00500
C3242       C  0.48536681  0.66832431  0.20659125    -0.03100
C3243       C  0.45053501  0.65523033  0.11660617     0.36200
C3244       C  0.51477412  0.69685799  0.22187039     0.39800
C3245       C  0.47757960  0.69155486  0.09038900     0.38900
C3246       C  0.48806979  0.66014239  0.24551090     0.35900
C3247       C  0.47525654  0.63140161  0.13323100     0.36500
C3248       C  0.42032683  0.60628816  0.26743123     0.39800
N3249       N  0.47544893  0.69752881  0.05837004    -0.38300
N3250       N  0.43748847  0.64666757  0.09555971    -0.39900
N3251       N  0.52755833  0.70501688  0.24397730    -0.37600
N3252       N  0.49016148  0.65355954  0.27651426    -0.40000
N3253       N  0.43690345  0.65470664  0.26060506    -0.39800
N3254       N  0.40955215  0.60151884  0.29529971    -0.37400
N3255       N  0.45852398  0.58352048  0.13501694    -0.38500
N3256       N  0.48656715  0.63663987  0.10654758    -0.40100
C3257       C  0.28151475  0.50063562  0.17943976    -0.05100
C3258       C  0.29459777  0.50769127  0.14528198     0.09100
C3259       C  0.28856763  0.50726258  0.10215388    -0.02400
C3260       C  0.26947895  0.49894371  0.09296564    -0.00700
C3261       C  0.25630862  0.49061746  0.12683100    -0.04300
C3262       C  0.26246940  0.49190825  0.17021749     0.02700
C3263       C  0.31425880  0.51303729  0.15450263     0.09500
C3264       C  0.30197089  0.51450067  0.06700500     0.35400
C3265       C  0.24925542  0.48390021  0.20554623     0.38900
C3266       C  0.31845303  0.49902920  0.16298184    -0.04700
C3267       C  0.33621251  0.50353634  0.17719154     0.02500
C3268       C  0.35036847  0.52226606  0.18136944    -0.04300
C3269       C  0.34631953  0.53632155  0.17111663    -0.00500
C3270       C  0.32828541  0.53169582  0.15790396    -0.03100
C3271       C  0.30417449  0.47981048  0.15837683     0.36200
C3272       C  0.36063895  0.55552776  0.17432626     0.39800
C3273       C  0.33929111  0.48870504  0.19082631     0.38900
C3274       C  0.32401119  0.54608951  0.14868254     0.35900
C3275       C  0.28768654  0.50159939  0.22405197     0.36500
C3276       C  0.26340332  0.49787864  0.04825211     0.39800
N3277       N  0.34162724  0.47685115  0.20198001    -0.38300
N3278       N  0.29274965  0.46452360  0.15479332    -0.39900
N3279       N  0.37207857  0.57085134  0.17698915    -0.37600
N3280       N  0.32057680  0.55755897  0.14117327    -0.40000
N3281       N  0.31269101  0.52027187  0.03899941    -0.39800
N3282       N  0.25855089  0.49702692  0.01258956    -0.37400
N3283       N  0.23896239  0.47748100  0.23419579    -0.38500
N3284       N  0.29259231  0.50228920  0.25959813    -0.40100
C3285       C  0.42498299  0.53833516  0.93007657    -0.05100
C3286       C  0.43941932  0.54518560  0.96094699     0.09100
C3287       C  0.45780777  0.55706697  0.94742342    -0.02400
C3288       C  0.46155948  0.56306474  0.90380852    -0.00700
C3289       C  0.44688805  0.55767519  0.87408209    -0.04300
C3290       C  0.42869022  0.54470239  0.88669879     0.02700
C3291       C  0.43503033  0.54134331  0.00827975     0.09500
C3292       C  0.47275130  0.56362249  0.97874858     0.35400
C3293       C  0.41375864  0.53829444  0.85537208     0.38900
C3294       C  0.43796066  0.52824297  0.03019458    -0.04700
C3295       C  0.43429348  0.52523962  0.07525679     0.02500
C3296       C  0.42727967  0.53501615  0.09811518    -0.04300
C3297       C  0.42389641  0.54775318  0.07597263    -0.00500
C3298       C  0.42807288  0.55115247  0.03133649    -0.03100
C3299       C  0.44472021  0.51788949  0.00630204     0.36200
C3300       C  0.41585638  0.55717023  0.09909739     0.39800
C3301       C  0.43806101  0.51239081  0.09824096     0.38900
C3302       C  0.42542670  0.56492199  0.00912923     0.35900
C3303       C  0.40627936  0.52509045  0.94339545     0.36500
C3304       C  0.48048761  0.57487384  0.88944547     0.39800
N3305       N  0.44123173  0.50222507  0.11647059    -0.38300
N3306       N  0.45009681  0.50961914  0.98718097    -0.39900
N3307       N  0.40937923  0.56458764  0.11760332    -0.37600
N3308       N  0.42336996  0.57591979  0.99133722    -0.40000
N3309       N  0.48465678  0.56881472  0.00378995    -0.39800
N3310       N  0.49556849  0.58421500  0.87781743    -0.37400
N3311       N  0.40183986  0.53309577  0.83036433    -0.38500
N3312       N  0.39138840  0.51447722  0.95415362    -0.40100
C3313       C  0.43560826  0.55632894  0.45570312    -0.05100
C3314       C  0.45420750  0.57013573  0.46188809     0.09100
C3315       C  0.46535955  0.57935424  0.42550420    -0.02400
C3316       C  0.45798046  0.57468523  0.38299517    -0.00700
C3317       C  0.43935861  0.56076193  0.37667969    -0.04300
C3318       C  0.42818774  0.55167792  0.41332063     0.02700
C3319       C  0.46176768  0.57514553  0.50711873     0.09500
C3320       C  0.48438052  0.59375692  0.43200680     0.35400
C3321       C  0.40912370  0.53723629  0.40763351     0.38900
C3322       C  0.46788632  0.56441106  0.52904080    -0.04700
C3323       C  0.47271507  0.56761690  0.57352475     0.02500
C3324       C  0.47167705  0.58175572  0.59615821    -0.04300
C3325       C  0.46626916  0.59298240  0.57362898    -0.00500
C3326       C  0.46139437  0.58970826  0.52920475    -0.03100
C3327       C  0.46887491  0.54985384  0.50586188     0.36200
C3328       C  0.46418517  0.60690230  0.59684281     0.39800
C3329       C  0.47852549  0.55621150  0.59621288     0.38900
C3330       C  0.45531181  0.60088286  0.50649645     0.35900
C3331       C  0.42407697  0.54693419  0.49316904     0.36500
C3332       C  0.46935719  0.58471640  0.34588469     0.39800
N3333       N  0.48310658  0.54710808  0.61447861    -0.38300
N3334       N  0.46969060  0.53827806  0.48723159    -0.39900
N3335       N  0.46219423  0.61787122  0.61504064    -0.37600
N3336       N  0.45048304  0.60980079  0.48831381    -0.40000
N3337       N  0.49953787  0.60527740  0.43735417    -0.39800
N3338       N  0.47839747  0.59276732  0.31627027    -0.37400
N3339       N  0.39388073  0.52571576  0.40368998    -0.38500
N3340       N  0.41489654  0.53943062  0.52304333    -0.40100
C3341       C  0.65633027  0.48920299  0.30158301    -0.05100
C3342       C  0.64557106  0.47354282  0.32769822     0.09100
C3343       C  0.65384945  0.46982004  0.36324127    -0.02400
C3344       C  0.67231670  0.48251076  0.37502165    -0.00700
C3345       C  0.68279072  0.49900196  0.35073737    -0.04300
C3346       C  0.67490026  0.50170519  0.31257210     0.02700
C3347       C  0.62519889  0.46179529  0.31943071     0.09500
C3348       C  0.64306162  0.45314473  0.38852764     0.35400
C3349       C  0.68582642  0.51744668  0.28450003     0.38900
C3350       C  0.61856320  0.44899133  0.28484357    -0.04700
C3351       C  0.59958023  0.43964519  0.27391001     0.02500
C3352       C  0.58702278  0.44305782  0.29768833    -0.04300
C3353       C  0.59358401  0.45479253  0.33461323    -0.00500
C3354       C  0.61255899  0.46421533  0.34507994    -0.03100
C3355       C  0.63140651  0.44568889  0.26008749     0.36200
C3356       C  0.58081148  0.45700028  0.36261774     0.39800
C3357       C  0.59326209  0.42705321  0.23718402     0.38900
C3358       C  0.61911600  0.47669205  0.38202541     0.35900
C3359       C  0.64802066  0.49283256  0.26423969     0.36500
C3360       C  0.67997219  0.47895367  0.41369783     0.39800
N3361       N  0.58825519  0.41693031  0.20802242    -0.38300
N3362       N  0.64167402  0.44305958  0.24040764    -0.39900
N3363       N  0.57069344  0.45877906  0.38510991    -0.37600
N3364       N  0.62415166  0.48651093  0.41173921    -0.40000
N3365       N  0.63439279  0.43981992  0.40857408    -0.39800
N3366       N  0.68600421  0.47602429  0.44457728    -0.37400
N3367       N  0.69454259  0.52999364  0.26212236    -0.38500
N3368       N  0.64135689  0.49570175  0.23448872    -0.40100
C3369       C  0.52858122  0.42350036  0.48639762    -0.05100
C3370       C  0.53067104  0.43993637  0.50435397     0.09100
C3371       C  0.52755231  0.45191710  0.47813034    -0.02400
C3372       C  0.52323670  0.44793017  0.43359106    -0.00700
C3373       C  0.52171915  0.43176188  0.41522943    -0.04300
C3374       C  0.52403419  0.41936532  0.44202243     0.02700
C3375       C  0.53786237  0.44541084  0.54975223     0.09500
C3376       C  0.52918345  0.46854311  0.49693494     0.35400
C3377       C  0.52287860  0.40289312  0.42347467     0.38900
C3378       C  0.55675133  0.45816648  0.55623590    -0.04700
C3379       C  0.56400632  0.46268910  0.59873602     0.02500
C3380       C  0.55251305  0.45403877  0.63540224    -0.04300
C3381       C  0.53340916  0.44156816  0.62871178    -0.00500
C3382       C  0.52614339  0.43738111  0.58601832    -0.03100
C3383       C  0.56886103  0.46632697  0.51888118     0.36200
C3384       C  0.52126751  0.43238001  0.66540363     0.39800
C3385       C  0.58332439  0.47653471  0.60429499     0.38900
C3386       C  0.50664278  0.42450771  0.57919633     0.35900
C3387       C  0.53187697  0.41121934  0.51328284     0.36500
C3388       C  0.52042163  0.46050173  0.40658974     0.39800
N3389       N  0.59875196  0.48757982  0.60816358    -0.38300
N3390       N  0.57850433  0.47279304  0.48909156    -0.39900
N3391       N  0.51155125  0.42504914  0.69463494    -0.37600
N3392       N  0.49109690  0.41421446  0.57367335    -0.40000
N3393       N  0.53050520  0.48180088  0.51204455    -0.39800
N3394       N  0.51820797  0.47052400  0.38495238    -0.37400
N3395       N  0.52203147  0.38975808  0.40890774    -0.38500
N3396       N  0.53451985  0.40145447  0.53480499    -0.40100
C3397       C  0.56826256  0.47393221  0.08798571    -0.05100
C3398       C  0.55846988  0.46338534  0.05142400     0.09100
C3399       C  0.54322245  0.44549856  0.05713655    -0.02400
C3400       C  0.53790744  0.43803187  0.09925519    -0.00700
C3401       C  0.54798124  0.44833663  0.13600913    -0.04300
C3402       C  0.56306918  0.46642417  0.13025470     0.02700
C3403       C  0.56468456  0.47045379  0.00635713     0.09500
C3404       C  0.53323214  0.43463044  0.01936997     0.35400
C3405       C  0.57377598  0.47700767  0.16756480     0.38900
C3406       C  0.57788216  0.46727458  0.98566753    -0.04700
C3407       C  0.58154101  0.47097974  0.94090490     0.02500
C3408       C  0.57208263  0.47802232  0.91671901    -0.04300
C3409       C  0.55963723  0.48217101  0.93800773    -0.00500
C3410       C  0.55598466  0.47842885  0.98285694    -0.03100
C3411       C  0.58724287  0.45960955  0.01028640     0.36200
C3412       C  0.55067946  0.49034855  0.91377545     0.39800
C3413       C  0.59416396  0.46639981  0.91933136     0.38900
C3414       C  0.54310244  0.48250823  0.00485591     0.35900
C3415       C  0.58389619  0.49234427  0.08187038     0.36500
C3416       C  0.52184056  0.41982955  0.10456229     0.39800
N3417       N  0.60411999  0.46251923  0.90244062    -0.38300
N3418       N  0.59473387  0.45355449  0.03001889    -0.39900
N3419       N  0.54358820  0.49690712  0.89435773    -0.37600
N3420       N  0.53288611  0.48581440  0.02257895    -0.40000
N3421       N  0.52534199  0.42600649  0.98916940    -0.39800
N3422       N  0.50897568  0.40530715  0.10818684    -0.37400
N3423       N  0.58233530  0.48542027  0.19734197    -0.38500
N3424       N  0.59637651  0.50703017  0.07688637    -0.40100
C3425       C  0.45912865  0.35832117  0.11070665    -0.05100
C3426       C  0.46145249  0.34292091  0.10447269     0.09100
C3427       C  0.47245527  0.33962929  0.13367774    -0.02400
C3428       C  0.48203229  0.35223707  0.16725665    -0.00700
C3429       C  0.48046857  0.36816452  0.17244992    -0.04300
C3430       C  0.46841293  0.37081236  0.14517948     0.02700
C3431       C  0.45459890  0.33134366  0.06431256     0.09500
C3432       C  0.47467992  0.32366488  0.12776675     0.35400
C3433       C  0.46640695  0.38687521  0.15100109     0.38900
C3434       C  0.46650577  0.33623386  0.02801802    -0.04700
C3435       C  0.46277565  0.32336712  0.99454311     0.02500
C3436       C  0.44684090  0.30569593  0.99650898    -0.04300
C3437       C  0.43417273  0.30127073  0.03111964    -0.00500
C3438       C  0.43810869  0.31408585  0.06517848    -0.03100
C3439       C  0.48321525  0.35417607  0.02649941     0.36200
C3440       C  0.41771648  0.28319542  0.03290232     0.39800
C3441       C  0.47593755  0.32800349  0.95924890     0.38900
C3442       C  0.42572274  0.30927306  0.10214010     0.35900
C3443       C  0.44789006  0.36169543  0.08043004     0.36500
C3444       C  0.49388349  0.34893299  0.19586615     0.39800
N3445       N  0.48664620  0.33178401  0.93156792    -0.38300
N3446       N  0.49651687  0.36848968  0.02537004    -0.39900
N3447       N  0.40460010  0.26874492  0.03428137    -0.37600
N3448       N  0.41586744  0.30549361  0.13171381    -0.40000
N3449       N  0.47652287  0.31098874  0.12309322    -0.39800
N3450       N  0.50340394  0.34620840  0.21813390    -0.37400
N3451       N  0.46482029  0.39970682  0.15569182    -0.38500
N3452       N  0.43897331  0.36439411  0.05606027    -0.40100
C3453       C  0.47555198  0.46616023  0.23104962    -0.05100
C3454       C  0.46094202  0.46125763  0.26087065     0.09100
C3455       C  0.45662467  0.44715536  0.29147990    -0.02400
C3456       C  0.46742026  0.43858156  0.29378226    -0.00700
C3457       C  0.48242403  0.44376296  0.26461666    -0.04300
C3458       C  0.48617425  0.45737443  0.23264037     0.02700
C3459       C  0.45041163  0.47134622  0.26045530     0.09500
C3460       C  0.44110608  0.44159042  0.32087112     0.35400
C3461       C  0.50072492  0.46215159  0.20075247     0.38900
C3462       C  0.43664713  0.46708204  0.22884455    -0.04700
C3463       C  0.42818911  0.47793324  0.22524938     0.02500
C3464       C  0.43351368  0.49321999  0.25334608    -0.04300
C3465       C  0.44636838  0.49662686  0.28700839    -0.00500
C3466       C  0.45478436  0.48571720  0.29050021    -0.03100
C3467       C  0.43139585  0.45162790  0.19960959     0.36200
C3468       C  0.45065055  0.51109407  0.31866515     0.39800
C3469       C  0.41455232  0.47371390  0.19136422     0.38900
C3470       C  0.46809995  0.48935367  0.32478145     0.35900
C3471       C  0.47972107  0.48042225  0.19892647     0.36500
C3472       C  0.46354631  0.42506725  0.32772073     0.39800
N3473       N  0.40365319  0.47032142  0.16439049    -0.38300
N3474       N  0.42719849  0.43928115  0.17635109    -0.39900
N3475       N  0.45399351  0.52257163  0.34403747    -0.37600
N3476       N  0.47862939  0.49212354  0.35227906    -0.40000
N3477       N  0.42869745  0.43713432  0.34422413    -0.39800
N3478       N  0.46048307  0.41431343  0.35482882    -0.37400
N3479       N  0.51228634  0.46596576  0.17519764    -0.38500
N3480       N  0.48292963  0.49177748  0.17333943    -0.40100
C3481       C  0.48735012  0.32449403  0.33871876    -0.05100
C3482       C  0.50205223  0.32128628  0.34716897     0.09100
C3483       C  0.52041195  0.33612847  0.34566447    -0.02400
C3484       C  0.52407393  0.35400559  0.33439852    -0.00700
C3485       C  0.50939931  0.35702472  0.32305532    -0.04300
C3486       C  0.49094076  0.34207034  0.32559165     0.02700
C3487       C  0.49778842  0.30207820  0.35752512     0.09500
C3488       C  0.53552153  0.33293561  0.35537919     0.35400
C3489       C  0.47551018  0.34424547  0.31208804     0.38900
C3490       C  0.49137842  0.28856542  0.32436985    -0.04700
C3491       C  0.48373255  0.26976127  0.33516527     0.02500
C3492       C  0.48238252  0.26432115  0.37925067    -0.04300
C3493       C  0.49009556  0.27803320  0.41200719    -0.00500
C3494       C  0.49779719  0.29683335  0.40113304    -0.03100
C3495       C  0.49188149  0.29399686  0.27928128     0.36200
C3496       C  0.48880801  0.27288899  0.45742536     0.39800
C3497       C  0.47693751  0.25595817  0.30092264     0.38900
C3498       C  0.50474952  0.31073624  0.43515508     0.35900
C3499       C  0.46839635  0.30953841  0.34334562     0.36500
C3500       C  0.54292361  0.36931798  0.33523547     0.39800
N3501       N  0.47154677  0.24495187  0.27361419    -0.38300
N3502       N  0.49221013  0.29837081  0.24337960    -0.39900
N3503       N  0.48788775  0.26921436  0.49398315    -0.37600
N3504       N  0.51035639  0.32185630  0.46220355    -0.40000
N3505       N  0.54757161  0.33038119  0.36326353    -0.39800
N3506       N  0.55793693  0.38158446  0.33607870    -0.37400
N3507       N  0.46317962  0.34587730  0.30111819    -0.38500
N3508       N  0.45331798  0.29761197  0.34726133    -0.40100
C3509       C  0.19205973  0.53146122  0.66508466    -0.05100
C3510       C  0.18767977  0.51325656  0.65582537     0.09100
C3511       C  0.16908796  0.49896844  0.65568812    -0.02400
C3512       C  0.15492559  0.50263672  0.66681148    -0.00700
C3513       C  0.15931093  0.52071630  0.67917804    -0.04300
C3514       C  0.17791476  0.53523576  0.67639569     0.02700
C3515       C  0.20245056  0.50854226  0.64801660     0.09500
C3516       C  0.16463577  0.48023256  0.64581609     0.35400
C3517       C  0.18250190  0.55412987  0.68412681     0.38900
C3518       C  0.20763971  0.50089605  0.68225281    -0.04700
C3519       C  0.21792862  0.49215578  0.67336304     0.02500
C3520       C  0.22379076  0.49170195  0.63032697    -0.04300
C3521       C  0.21976456  0.50067056  0.59659979    -0.00500
C3522       C  0.20891244  0.50885386  0.60540394    -0.03100
C3523       C  0.20149709  0.50120451  0.72637665     0.36200
C3524       C  0.22539935  0.50013703  0.55210726     0.39800
C3525       C  0.22172381  0.48297892  0.70842697     0.38900
C3526       C  0.20336431  0.51656201  0.57022020     0.35900
C3527       C  0.21117315  0.54619078  0.66406340     0.36500
C3528       C  0.13598598  0.48742057  0.66748633     0.39800
N3529       N  0.22431189  0.47551714  0.73685114    -0.38300
N3530       N  0.19658472  0.50148961  0.76150515    -0.39900
N3531       N  0.22984574  0.49966513  0.51660684    -0.37600
N3532       N  0.19882540  0.52263829  0.54220905    -0.40000
N3533       N  0.16119937  0.46531971  0.63825642    -0.39800
N3534       N  0.12092242  0.47523767  0.66780368    -0.37400
N3535       N  0.18613775  0.56921858  0.68996611    -0.38500
N3536       N  0.22642899  0.55795822  0.66330670    -0.40100
C3537       C  0.22014853  0.42482464  0.81841346    -0.05100
C3538       C  0.22876826  0.44174861  0.84109378     0.09100
C3539       C  0.24234385  0.45787057  0.82013896    -0.02400
C3540       C  0.24687688  0.45721244  0.77622192    -0.00700
C3541       C  0.23757293  0.44046232  0.75282275    -0.04300
C3542       C  0.22451837  0.42418513  0.77426216     0.02700
C3543       C  0.22292172  0.44293666  0.88640944     0.09500
C3544       C  0.25115689  0.47527499  0.84345883     0.35400
C3545       C  0.21589847  0.40675000  0.75113152     0.38900
C3546       C  0.23358837  0.44330305  0.92228740    -0.04700
C3547       C  0.22891528  0.44602292  0.96473742     0.02500
C3548       C  0.21330941  0.44810343  0.97160594    -0.04300
C3549       C  0.20235813  0.44722164  0.93553954    -0.00500
C3550       C  0.20729798  0.44486111  0.89308617    -0.03100
C3551       C  0.24966974  0.44134915  0.91524439     0.36200
C3552       C  0.18583303  0.44847449  0.94195725     0.39800
C3553       C  0.24078087  0.44763638  0.00093803     0.38900
C3554       C  0.19661782  0.44492536  0.85593370     0.35900
C3555       C  0.20664029  0.40815564  0.84046431     0.36500
C3556       C  0.26035532  0.47403265  0.75447648     0.39800
N3557       N  0.25026163  0.44899330  0.02981844    -0.38300
N3558       N  0.26252127  0.43983297  0.90957777    -0.39900
N3559       N  0.17263923  0.44945504  0.94693940    -0.37600
N3560       N  0.18821591  0.44505454  0.82615950    -0.40000
N3561       N  0.25812573  0.48913173  0.86215327    -0.39800
N3562       N  0.27095769  0.48751231  0.73717997    -0.37400
N3563       N  0.20913454  0.39280455  0.73282409    -0.38500
N3564       N  0.19586239  0.39485869  0.85809662    -0.40100
C3565       C  0.19435298  0.42512770  0.31832678    -0.05100
C3566       C  0.20178603  0.44203740  0.34084805     0.09100
C3567       C  0.20336260  0.45769875  0.31988323    -0.02400
C3568       C  0.19783321  0.45658195  0.27621792    -0.00700
C3569       C  0.19095691  0.43982802  0.25306952    -0.04300
C3570       C  0.18895988  0.42402125  0.27439076     0.02700
C3571       C  0.20891699  0.44380304  0.38610089     0.09500
C3572       C  0.21140727  0.47517580  0.34287304     0.35400
C3573       C  0.18121619  0.40663446  0.25119010     0.38900
C3574       C  0.22742555  0.44855810  0.39268297    -0.04700
C3575       C  0.23476559  0.45174880  0.43511631     0.02500
C3576       C  0.22360281  0.45025588  0.47157882    -0.04300
C3577       C  0.20501444  0.44564559  0.46453352    -0.00500
C3578       C  0.19770464  0.44227489  0.42195460    -0.03100
C3579       C  0.23906035  0.45059816  0.35544642     0.36200
C3580       C  0.19364079  0.44543951  0.50053851     0.39800
C3581       C  0.25392931  0.45677095  0.44064462     0.38900
C3582       C  0.17872757  0.43764758  0.41468205     0.35900
C3583       C  0.19261808  0.40902565  0.34023378     0.36500
C3584       C  0.20049990  0.47309011  0.25445490     0.39800
N3585       N  0.26931944  0.46109696  0.44466320    -0.38300
N3586       N  0.24834798  0.45228092  0.32578500    -0.39900
N3587       N  0.18458041  0.44537707  0.52916285    -0.37600
N3588       N  0.16360533  0.43396420  0.40865346    -0.40000
N3589       N  0.21791095  0.48910735  0.36120631    -0.39800
N3590       N  0.20307273  0.48651199  0.23762701    -0.37400
N3591       N  0.17496497  0.39276685  0.23263200    -0.38500
N3592       N  0.19127353  0.39620704  0.35782009    -0.40100
C3593       C  0.33068170  0.47884793  0.48130161    -0.05100
C3594       C  0.32473610  0.46728963  0.44440441     0.09100
C3595       C  0.30739890  0.45090569  0.44488239    -0.02400
C3596       C  0.29534556  0.44696257  0.48071398    -0.00700
C3597       C  0.30048946  0.45974284  0.51527692    -0.04300
C3598       C  0.31857846  0.47510140  0.51657610     0.02700
C3599       C  0.33568776  0.47407637  0.40337759     0.09500
C3600       C  0.30165817  0.43871027  0.40749023     0.35400
C3601       C  0.32474984  0.48724231  0.55407174     0.38900
C3602       C  0.35182019  0.47295783  0.39721459    -0.04700
C3603       C  0.36415953  0.48289906  0.36306515     0.02500
C3604       C  0.36037705  0.49404535  0.33548448    -0.04300
C3605       C  0.34365207  0.49415110  0.33989950    -0.00500
C3606       C  0.33131712  0.48415914  0.37370067    -0.03100
C3607       C  0.35601997  0.46220935  0.42712940     0.36200
C3608       C  0.33929116  0.50487320  0.31010773     0.39800
C3609       C  0.38118251  0.48249747  0.35774904     0.38900
C3610       C  0.31453500  0.48501734  0.37917981     0.35900
C3611       C  0.34892719  0.49520104  0.48190709     0.36500
C3612       C  0.27723515  0.43050294  0.48049855     0.39800
N3613       N  0.39479585  0.48224252  0.35341480    -0.38300
N3614       N  0.35935086  0.45363048  0.45109035    -0.39900
N3615       N  0.33578383  0.51343370  0.28651511    -0.37600
N3616       N  0.30120263  0.48581443  0.38318056    -0.40000
N3617       N  0.29710239  0.42903067  0.37752068    -0.39800
N3618       N  0.26276163  0.41738711  0.48017421    -0.37400
N3619       N  0.32998589  0.49699559  0.58384700    -0.38500
N3620       N  0.36347686  0.50821055  0.48245660    -0.40100
C3621       C  0.38024926  0.54444914  0.66728124    -0.05100
C3622       C  0.36681046  0.54127135  0.69931158     0.09100
C3623       C  0.37244720  0.54980526  0.74048626    -0.02400
C3624       C  0.39141673  0.56038084  0.75067339    -0.00700
C3625       C  0.40488129  0.56272732  0.71932914    -0.04300
C3626       C  0.39917941  0.55546774  0.67695914     0.02700
C3627       C  0.34676777  0.52841076  0.68996319     0.09500
C3628       C  0.35865689  0.54725888  0.77274789     0.35400
C3629       C  0.41281542  0.55957979  0.64297836     0.38900
C3630       C  0.33748246  0.51078633  0.70939339    -0.04700
C3631       C  0.31903206  0.49811670  0.69808523     0.02500
C3632       C  0.31013107  0.50238316  0.66457251    -0.04300
C3633       C  0.31929818  0.52043385  0.64646311    -0.00500
C3634       C  0.33731198  0.53348206  0.66014887    -0.03100
C3635       C  0.34719216  0.50538429  0.73975566     0.36200
C3636       C  0.31103261  0.52536732  0.61128515     0.39800
C3637       C  0.30926507  0.48070334  0.72126314     0.38900
C3638       C  0.34645601  0.55203847  0.64243471     0.35900
C3639       C  0.37467408  0.53592376  0.62464865     0.36500
C3640       C  0.39693425  0.56805633  0.79410298     0.39800
N3641       N  0.30143896  0.46686632  0.73990398    -0.38300
N3642       N  0.35496757  0.50106390  0.76382972    -0.39900
N3643       N  0.30460185  0.52935375  0.58295986    -0.37600
N3644       N  0.35380581  0.56684376  0.62838740    -0.40000
N3645       N  0.34761638  0.54512378  0.79846241    -0.39800
N3646       N  0.40129226  0.57416004  0.82877284    -0.37400
N3647       N  0.42367010  0.56297558  0.61580181    -0.38500
N3648       N  0.37042047  0.52924308  0.59049442    -0.40100
C3649       C  0.01008781  0.16764259  0.48533771    -0.05100
C3650       C  0.01180951  0.16012203  0.52494619     0.09100
C3651       C  0.99573144  0.14753834  0.54812878    -0.02400
C3652       C  0.97806791  0.14307896  0.53250653    -0.00700
C3653       C  0.97651209  0.15138609  0.49407070    -0.04300
C3654       C  0.99251224  0.16306964  0.46974301     0.02700
C3655       C  0.03068038  0.16667243  0.54321743     0.09500
C3656       C  0.99743763  0.13952403  0.58842526     0.35400
C3657       C  0.99091297  0.17011784  0.42792074     0.38900
C3658       C  0.03730573  0.17989297  0.57688541    -0.04700
C3659       C  0.05595195  0.18839670  0.58963271     0.02500
C3660       C  0.06839200  0.18442565  0.56740261    -0.04300
C3661       C  0.06148045  0.17023154  0.53580861    -0.00500
C3662       C  0.04264221  0.16136901  0.52380526    -0.03100
C3663       C  0.02517415  0.18556307  0.59670001     0.36200
C3664       C  0.07390265  0.16555969  0.51358449     0.39800
C3665       C  0.06226210  0.20116297  0.62604491     0.38900
C3666       C  0.03573543  0.14749362  0.48978153     0.35900
C3667       C  0.02645818  0.18057634  0.46114844     0.36500
C3668       C  0.96154484  0.12984179  0.55551849     0.39800
N3669       N  0.06710814  0.21117152  0.65539817    -0.38300
N3670       N  0.01550906  0.19013323  0.61229707    -0.39900
N3671       N  0.08383307  0.16188307  0.49576500    -0.37600
N3672       N  0.03022124  0.13651597  0.46241100    -0.40000
N3673       N  0.99884235  0.13322843  0.62073064    -0.39800
N3674       N  0.94834478  0.11913360  0.57367801    -0.37400
N3675       N  0.98986325  0.17554653  0.39408250    -0.38500
N3676       N  0.03944671  0.19087255  0.44169786    -0.40100
C3677       C  0.18197837  0.32082169  0.54730011    -0.05100
C3678       C  0.19457873  0.32838830  0.58222921     0.09100
C3679       C  0.19738362  0.31653308  0.60981300    -0.02400
C3680       C  0.18749635  0.29725905  0.60284371    -0.00700
C3681       C  0.17409331  0.28960972  0.56948209    -0.04300
C3682       C  0.17162837  0.30154323  0.54126000     0.02700
C3683       C  0.20447873  0.34882328  0.59045173     0.09500
C3684       C  0.21001926  0.32415061  0.64627892     0.35400
C3685       C  0.15861432  0.29401037  0.50541986     0.38900
C3686       C  0.19469887  0.35711215  0.60738024    -0.04700
C3687       C  0.20362790  0.37639724  0.61311275     0.02500
C3688       C  0.22263099  0.38769054  0.60259854    -0.04300
C3689       C  0.23255759  0.37924650  0.58704818    -0.00500
C3690       C  0.22344377  0.35995015  0.58047273    -0.03100
C3691       C  0.17534197  0.34571602  0.61898400     0.36200
C3692       C  0.25205058  0.39036631  0.57666500     0.39800
C3693       C  0.19321127  0.38447257  0.63100057     0.38900
C3694       C  0.23348422  0.35151996  0.56251490     0.35900
C3695       C  0.17954893  0.33294039  0.51776446     0.36500
C3696       C  0.19085390  0.28531610  0.63071271     0.39800
N3697       N  0.18488881  0.39089763  0.64518736    -0.38300
N3698       N  0.15989583  0.33664431  0.62811323    -0.39900
N3699       N  0.26764080  0.39915923  0.56863459    -0.37600
N3700       N  0.24144179  0.34472856  0.54822797    -0.40000
N3701       N  0.22007449  0.33025117  0.67542286    -0.39800
N3702       N  0.19378771  0.27587704  0.65267221    -0.37400
N3703       N  0.14824056  0.28804695  0.47682948    -0.38500
N3704       N  0.17761282  0.34264698  0.49434959    -0.40100
C3705       C  0.17410370  0.13383173  0.52209606    -0.05100
C3706       C  0.16074413  0.13400033  0.49448819     0.09100
C3707       C  0.15489366  0.12263842  0.45722995    -0.02400
C3708       C  0.16345025  0.11236338  0.44548153    -0.00700
C3709       C  0.17789822  0.11318451  0.47139828    -0.04300
C3710       C  0.18255882  0.12341707  0.51089316     0.02700
C3711       C  0.15430914  0.14760418  0.50217922     0.09500
C3712       C  0.14033757  0.12196651  0.43032648     0.35400
C3713       C  0.19603455  0.12328282  0.54037036     0.38900
C3714       C  0.16413597  0.16527131  0.48327317    -0.04700
C3715       C  0.15912220  0.17872900  0.49219726     0.02500
C3716       C  0.14408794  0.17469711  0.52071808    -0.04300
C3717       C  0.13332331  0.15630412  0.53657125    -0.00500
C3718       C  0.13871473  0.14305488  0.52820189    -0.03100
C3719       C  0.17995860  0.16978583  0.45562293     0.36200
C3720       C  0.11640196  0.15067926  0.56080748     0.39800
C3721       C  0.17018007  0.19689659  0.47309069     0.38900
C3722       C  0.12849784  0.12481025  0.54733963     0.35900
C3723       C  0.17941194  0.14475045  0.56171745     0.36500
C3724       C  0.15794900  0.10181698  0.40532880     0.39800
N3725       N  0.17908123  0.21134315  0.45768766    -0.38300
N3726       N  0.19258086  0.17330526  0.43371197    -0.39900
N3727       N  0.10283965  0.14611669  0.57992055    -0.37600
N3728       N  0.12042892  0.11029356  0.56285394    -0.40000
N3729       N  0.12865318  0.12140855  0.40909353    -0.39800
N3730       N  0.15350815  0.09341000  0.37327588    -0.37400
N3731       N  0.20679380  0.12325594  0.56396631    -0.38500
N3732       N  0.18357501  0.15342655  0.59336270    -0.40100
C3733       C  0.21436607  0.20411654  0.78207325    -0.05100
C3734       C  0.19693209  0.20075915  0.76793384     0.09100
C3735       C  0.18073915  0.18692534  0.78818217    -0.02400
C3736       C  0.18191771  0.17684423  0.82328151    -0.00700
C3737       C  0.19935278  0.17988120  0.83731241    -0.04300
C3738       C  0.21559924  0.19352242  0.81628870     0.02700
C3739       C  0.19498927  0.21109502  0.73073849     0.09500
C3740       C  0.16271617  0.18271792  0.77200779     0.35400
C3741       C  0.23347338  0.19591156  0.82790796     0.38900
C3742       C  0.19468525  0.20494772  0.68783289    -0.04700
C3743       C  0.18645940  0.20983514  0.65433391     0.02500
C3744       C  0.17838383  0.22074870  0.66391791    -0.04300
C3745       C  0.18058392  0.22854075  0.70585830    -0.00500
C3746       C  0.18918228  0.22395127  0.73903178    -0.03100
C3747       C  0.20140423  0.19232254  0.67904728     0.36200
C3748       C  0.17297453  0.24032873  0.71566335     0.39800
C3749       C  0.18462883  0.20198760  0.61125981     0.38900
C3750       C  0.19075254  0.23123418  0.78269435     0.35900
C3751       C  0.23094737  0.21821364  0.76079766     0.36500
C3752       C  0.16501939  0.16351098  0.84508057     0.39800
N3753       N  0.18327595  0.19558503  0.57710925    -0.38300
N3754       N  0.20680989  0.18228473  0.67218136    -0.39900
N3755       N  0.16685051  0.24966231  0.72380471    -0.37600
N3756       N  0.19204773  0.23699712  0.81759870    -0.40000
N3757       N  0.14838641  0.17930463  0.75888727    -0.39800
N3758       N  0.15141072  0.15292234  0.86200816    -0.37400
N3759       N  0.24768802  0.19766817  0.83699910    -0.38500
N3760       N  0.24417833  0.22945076  0.74372895    -0.40100
C3761       C  0.11622730  0.22126154  0.26593995    -0.05100
C3762       C  0.11388244  0.23381486  0.29201731     0.09100
C3763       C  0.10662948  0.24425525  0.27367526    -0.02400
C3764       C  0.10116365  0.24171208  0.22966205    -0.00700
C3765       C  0.10317600  0.22888012  0.20382118    -0.04300
C3766       C  0.11099937  0.21889678  0.22175494     0.02700
C3767       C  0.11809569  0.23523401  0.33950614     0.09500
C3768       C  0.10426268  0.25715720  0.30056986     0.35400
C3769       C  0.11355073  0.20614258  0.19471637     0.38900
C3770       C  0.13606468  0.24749034  0.35464252    -0.04700
C3771       C  0.14024267  0.24800425  0.39931798     0.02500
C3772       C  0.12634746  0.23629796  0.42921545    -0.04300
C3773       C  0.10809146  0.22462448  0.41390234    -0.00500
C3774       C  0.10406108  0.22403245  0.36920598    -0.03100
C3775       C  0.15018050  0.25965898  0.32407381     0.36200
C3776       C  0.09336621  0.21288143  0.44369017     0.39800
C3777       C  0.15870268  0.26105079  0.41449754     0.38900
C3778       C  0.08543926  0.21175092  0.35357178     0.35900
C3779       C  0.12347209  0.21037732  0.28505518     0.36500
C3780       C  0.09248304  0.25149758  0.21163838     0.39800
N3781       N  0.17342258  0.27151115  0.42654172    -0.38300
N3782       N  0.16136096  0.26939901  0.29956549    -0.39900
N3783       N  0.08146792  0.20364247  0.46723759    -0.37600
N3784       N  0.07058533  0.20196549  0.34121120    -0.40000
N3785       N  0.10237018  0.26742628  0.32211586    -0.39800
N3786       N  0.08546197  0.25920462  0.19729081    -0.37400
N3787       N  0.11567077  0.19606131  0.17299782    -0.38500
N3788       N  0.12917390  0.20165140  0.30046972    -0.40100
C3789       C  0.10349929  0.25119651  0.86498524    -0.05100
C3790       C  0.09130531  0.23632171  0.83840173     0.09100
C3791       C  0.07449228  0.22218519  0.85571221    -0.02400
C3792       C  0.07048700  0.22223519  0.90035642    -0.00700
C3793       C  0.08312194  0.23670003  0.92747701    -0.04300
C3794       C  0.09937869  0.25145530  0.90937128     0.02700
C3795       C  0.09736277  0.23443922  0.79389894     0.09500
C3796       C  0.06167979  0.20726631  0.82779776     0.35400
C3797       C  0.11204855  0.26677578  0.93662544     0.38900
C3798       C  0.10589348  0.22376459  0.78828141    -0.04700
C3799       C  0.11275667  0.22267052  0.74720869     0.02500
C3800       C  0.11050961  0.23171538  0.71065471    -0.04300
C3801       C  0.10217658  0.24271946  0.71670195    -0.00500
C3802       C  0.09559793  0.24399575  0.75823545    -0.03100
C3803       C  0.10748238  0.21371576  0.82495383     0.36200
C3804       C  0.09982647  0.25237872  0.68030077     0.39800
C3805       C  0.12265022  0.21262634  0.74335185     0.38900
C3806       C  0.08667378  0.25485580  0.76431099     0.35900
C3807       C  0.12066116  0.26584466  0.84691759     0.36500
C3808       C  0.05409279  0.20672667  0.91892609     0.39800
N3809       N  0.13053357  0.20460790  0.74067111    -0.38300
N3810       N  0.10861992  0.20552779  0.85393050    -0.39900
N3811       N  0.09794539  0.26013117  0.65138114    -0.37600
N3812       N  0.07950461  0.26347200  0.76922745    -0.40000
N3813       N  0.05144477  0.19539894  0.80545354    -0.39800
N3814       N  0.04109282  0.19428499  0.93378788    -0.37400
N3815       N  0.12214556  0.27896963  0.95840349    -0.38500
N3816       N  0.13433157  0.27747928  0.83232503    -0.40100
loop_ 
_geom_bond_atom_site_label_1 
_geom_bond_atom_site_label_2 
_geom_bond_distance 
_geom_bond_site_symmetry_2 
_ccdc_geom_bond_type 
Fe1          O17   2.052       .  S
Fe1           O7   2.079       .  S
Fe1          O14   2.065       .  S
Fe1           O6   2.061       .  S
Fe1          O12   1.955       .  S
Fe2           O5   2.074       .  S
Fe2           O9   2.084       .  S
Fe2          O13   2.079       .  S
Fe2          O18   2.091       .  S
Fe2          O12   1.957       .  S
Fe3          O21   2.075       .  S
Fe3           O8   2.051       .  S
Fe3          O15   2.064       .  S
Fe3           O4   2.071       .  S
Fe3          O12   1.956       .  S
O4           C11   1.269       .  A
O5           C19   1.269       .  A
O6           C11   1.267       .  A
O7           C10   1.273       .  A
O8           C20   1.271       .  A
O9           C22   1.276       .  A
C10          O15   1.271       .  A
C10        C3660   1.488       .  S
C11        C3800   1.493       .  S
O13          C16   1.270       .  A
O14          C16   1.267       .  A
C16        C3681   1.491       .  S
O17          C22   1.270       .  A
O18          C20   1.276       .  A
C19          O21   1.268       .  A
C19        C3716   1.514       .  S
C20        C3744   1.479       .  S
C22        C3772   1.490       .  S
Fe23         O39   2.086       .  S
Fe23         O29   2.057       .  S
Fe23         O36   2.051       .  S
Fe23         O28   2.081       .  S
Fe23         O34   1.953       .  S
Fe24         O27   2.082       .  S
Fe24         O31   2.054       .  S
Fe24         O35   2.086       .  S
Fe24         O40   2.062       .  S
Fe24         O34   1.963       .  S
Fe25         O43   2.055       .  S
Fe25         O30   2.084       .  S
Fe25         O37   2.072       .  S
Fe25         O26   2.051       .  S
Fe25         O34   1.956       .  S
O26          C33   1.271       .  A
O27          C41   1.271       .  A
O28          C33   1.276       .  A
O29          C32   1.265       .  A
O30          C42   1.275       .  A
O31          C44   1.271       .  A
C32          O37   1.267       .  A
C32        C3520   1.487       .  S
C33        C3576   1.493       .  S
O35          C38   1.269       .  A
O36          C38   1.263       .  A
C38        C3688   1.497       .  S
O39          C44   1.277       .  A
O40          C42   1.270       .  A
C41          O43   1.265       .  A
C41        C3632   1.497       .  S
C42        C3597   1.481       .  S
C44        C3541   1.478       .  S
Fe45         O61   2.061       .  S
Fe45         O51   2.065       .  S
Fe45         O58   2.064       .  S
Fe45         O50   2.061       .  S
Fe45         O56   1.982       .  S
Fe46         O49   2.056       .  S
Fe46         O53   2.074       .  S
Fe46         O57   2.060       .  S
Fe46         O62   2.078       .  S
Fe46         O56   1.977       .  S
Fe47         O65   2.066       .  S
Fe47         O52   2.054       .  S
Fe47         O59   2.068       .  S
Fe47         O48   2.070       .  S
Fe47         O56   1.976       .  S
O48          C55   1.271       .  A
O49          C63   1.266       .  A
O50          C55   1.269       .  A
O51          C54   1.268       .  A
O52          C64   1.270       .  A
O53          C66   1.273       .  A
C54          O59   1.267       .  A
C54        C3352   1.499       .  S
C55        C3401   1.483       .  S
O57          C60   1.265       .  A
O58          C60   1.266       .  A
C60        C3457   1.492       .  S
O61          C66   1.271       .  A
O62          C64   1.272       .  A
C63          O65   1.268       .  A
C63        C3485   1.494       .  S
C64        C3429   1.482       .  S
C66        C3373   1.482       .  S
Fe67         O83   2.059       .  S
Fe67         O73   2.067       .  S
Fe67         O80   2.069       .  S
Fe67         O72   2.060       .  S
Fe67         O78   1.974       .  S
Fe68         O71   2.052       .  S
Fe68         O75   2.069       .  S
Fe68         O79   2.052       .  S
Fe68         O84   2.066       .  S
Fe68         O78   1.974       .  S
Fe69         O87   2.076       .  S
Fe69         O74   2.056       .  S
Fe69         O81   2.075       .  S
Fe69         O70   2.082       .  S
Fe69         O78   1.974       .  S
O70          C77   1.272       .  A
O71          C85   1.265       .  A
O72          C77   1.269       .  A
O73          C76   1.269       .  A
O74          C86   1.271       .  A
O75          C88   1.270       .  A
C76          O81   1.270       .  A
C76        C3233   1.498       .  S
C77        C3317   1.487       .  S
O79          C82   1.263       .  A
O80          C82   1.267       .  A
C82        C3464   1.489       .  S
O83          C88   1.270       .  A
O84          C86   1.270       .  A
C85          O87   1.269       .  A
C85        C3268   1.494       .  S
C86        C3604   1.473       .  S
C88        C3296   1.473       .  S
Fe89        O105   2.074   1_556  S
Fe89         O95   2.050       .  S
Fe89        O102   2.043       .  S
Fe89         O94   2.068       .  S
Fe89        O100   1.972       .  S
Fe90         O93   2.070       .  S
Fe90         O97   2.068   1_556  S
Fe90        O101   2.077       .  S
Fe90        O106   2.062       .  S
Fe90        O100   1.974       .  S
Fe91        O109   2.071       .  S
Fe91         O96   2.062       .  S
Fe91        O103   2.065       .  S
Fe91         O92   2.066       .  S
Fe91        O100   1.970       .  S
O92          C99   1.272       .  A
O93         C107   1.269       .  A
O94          C99   1.272       .  A
O95          C98   1.264       .  A
O96         C108   1.270       .  A
O97         C110   1.273       .  A
C98         O103   1.266       .  A
C98        C3100   1.489       .  S
C99        C3205   1.490       .  S
O101        C104   1.267       .  A
O102        C104   1.261       .  A
C104       C3128   1.491       .  S
O105        C110   1.275       .  A
O106        C108   1.270       .  A
C107        O109   1.269       .  A
C107       C3149   1.507       .  S
C108       C3737   1.488       .  S
C110       C3184   1.480       .  S
Fe111       O127   2.055       .  S
Fe111       O117   2.067       .  S
Fe111       O124   2.072       .  S
Fe111       O116   2.064       .  S
Fe111       O122   1.966       .  S
Fe112       O115   2.059       .  S
Fe112       O119   2.079       .  S
Fe112       O123   2.060       .  S
Fe112       O128   2.079       .  S
Fe112       O122   1.970       .  S
Fe113       O131   2.072       .  S
Fe113       O118   2.056       .  S
Fe113       O125   2.073       .  S
Fe113       O114   2.074       .  S
Fe113       O122   1.969       .  S
O114        C121   1.273       .  A
O115        C129   1.267       .  A
O116        C121   1.273       .  A
O117        C120   1.266       .  A
O118        C130   1.269       .  A
O119        C132   1.274       .  A
C120        O125   1.268       .  A
C120       C2981   1.487       .  S
C121       C3072   1.489   1_556  S
O123        C126   1.265       .  A
O124        C126   1.266       .  A
C126       C3121   1.492       .  S
O127        C132   1.272       .  A
O128        C130   1.272       .  A
C129        O131   1.270       .  A
C129       C3009   1.502       .  S
C130       C3436   1.478       .  S
C132       C3037   1.496       .  S
Fe133       O149   2.043       .  S
Fe133       O139   2.062       .  S
Fe133       O146   2.064       .  S
Fe133       O138   2.040       .  S
Fe133       O144   1.963       .  S
Fe134       O137   2.066       .  S
Fe134       O141   2.083       .  S
Fe134       O145   2.055       .  S
Fe134       O150   2.085       .  S
Fe134       O144   1.969       .  S
Fe135       O153   2.084       .  S
Fe135       O140   2.048       .  S
Fe135       O147   2.057       .  S
Fe135       O136   2.078       .  S
Fe135       O144   1.969       .  S
O136        C143   1.266       .  A
O137        C151   1.267       .  A
O138        C143   1.259       .  A
O139        C142   1.274       .  A
O140        C152   1.268       .  A
O141        C154   1.269       .  A
C142        O147   1.273       .  A
C142       C2904   1.471       .  S
C143       C2869   1.500       .  S
O145        C148   1.269       .  A
O146        C148   1.271       .  A
C148       C2925   1.468       .  S
O149        C154   1.263       .  A
O150        C152   1.275       .  A
C151        O153   1.271       .  A
C151       C2988   1.512       .  S
C152       C2953   1.488       .  S
C154       C2841   1.490       .  S
Fe155       O171   2.073       .  S
Fe155       O161   2.052       .  S
Fe155       O168   2.065       .  S
Fe155       O160   2.067       .  S
Fe155       O166   1.957       .  S
Fe156       O159   2.058       .  S
Fe156       O163   2.066       .  S
Fe156       O167   2.066       .  S
Fe156       O172   2.066       .  S
Fe156       O166   1.956       .  S
Fe157       O175   2.077       .  S
Fe157       O162   2.063       .  S
Fe157       O169   2.074       .  S
Fe157       O158   2.067       .  S
Fe157       O166   1.961       .  S
O158        C165   1.269       .  A
O159        C173   1.268       .  A
O160        C165   1.268       .  A
O161        C164   1.270       .  A
O162        C174   1.268       .  A
O163        C176   1.269       .  A
C164        O169   1.270       .  A
C164       C2729   1.489       .  S
C165       C2876   1.498       .  S
O167        C170   1.270       .  A
O168        C170   1.269       .  A
C170       C2757   1.479       .  S
O171        C176   1.271       .  A
O172        C174   1.272       .  A
C173        O175   1.273       .  A
C173       C2820   1.489       .  S
C174       C2792   1.484       .  S
C176       C2701   1.494       .  S
Fe177       O193   2.063       .  S
Fe177       O183   2.076       .  S
Fe177       O190   2.074       .  S
Fe177       O182   2.057       .  S
Fe177       O188   1.969       .  S
Fe178       O181   2.066       .  S
Fe178       O185   2.084       .  S
Fe178       O189   2.065       .  S
Fe178       O194   2.090       .  S
Fe178       O188   1.960       .  S
Fe179       O197   2.079       .  S
Fe179       O184   2.066       .  S
Fe179       O191   2.061       .  S
Fe179       O180   2.076       .  S
Fe179       O188   1.971       .  S
O180        C187   1.267       .  A
O181        C195   1.266       .  A
O182        C187   1.265       .  A
O183        C186   1.274       .  A
O184        C196   1.272       .  A
O185        C198   1.271       .  A
C186        O191   1.273       .  A
C186       C3212   1.480       .  S
C187       C2645   1.489       .  S
O189        C192   1.271       .  A
O190        C192   1.272       .  A
C192       C3177   1.490       .  S
O193        C198   1.268       .  A
O194        C196   1.277       .  A
C195        O197   1.269       .  A
C195       C2673   1.508       .  S
C196       C2624   1.489       .  S
C198       C3709   1.505       .  S
Fe199       O215   2.056       .  S
Fe199       O205   2.085       .  S
Fe199       O212   2.084       .  S
Fe199       O204   2.058       .  S
Fe199       O210   1.953       .  S
Fe200       O203   2.065       .  S
Fe200       O207   2.087       .  S
Fe200       O211   2.048       .  S
Fe200       O216   2.081       .  S
Fe200       O210   1.956       .  S
Fe201       O219   2.085       .  S
Fe201       O206   2.064       .  S
Fe201       O213   2.057       .  S
Fe201       O202   2.083       .  S
Fe201       O210   1.964       .  S
O202        C209   1.268       .  A
O203        C217   1.267       .  A
O204        C209   1.265       .  A
O205        C208   1.277       .  A
O206        C218   1.271       .  A
O207        C220   1.272       .  A
C208        O213   1.273       .  A
C208       C3065   1.489       .  S
C209       C2652   1.505       .  S
O211        C214   1.267       .  A
O212        C214   1.273       .  A
C214       C3044   1.498       .  S
O215        C220   1.267       .  A
O216        C218   1.276       .  A
C217        O219   1.272       .  A
C217       C2596   1.491       .  S
C218       C2960   1.490       .  S
C220       C3492   1.490       .  S
Fe221       O237   2.048       .  S
Fe221       O227   2.081   1_554  S
Fe221       O234   2.081       .  S
Fe221       O226   2.048       .  S
Fe221       O232   1.971       .  S
Fe222       O225   2.057       .  S
Fe222       O229   2.070       .  S
Fe222       O233   2.060       .  S
Fe222       O238   2.078       .  S
Fe222       O232   1.966       .  S
Fe223       O241   2.071       .  S
Fe223       O228   2.064       .  S
Fe223       O235   2.067   1_554  S
Fe223       O224   2.075       .  S
Fe223       O232   1.974       .  S
O224        C231   1.267       .  A
O225        C239   1.266       .  A
O226        C231   1.263       .  A
O227        C230   1.275       .  A
O228        C240   1.270       .  A
O229        C242   1.267       .  A
C230        O235   1.272       .  A
C230       C2540   1.481       .  S
C231       C2512   1.498       .  S
O233        C236   1.271       .  A
O234        C236   1.276       .  A
C236       C2561   1.488       .  S
O237        C242   1.263       .  A
O238        C240   1.273       .  A
C239        O241   1.269       .  A
C239       C3093   1.498       .  S
C240       C2617   1.493       .  S
C242       C2484   1.492       .  S
Fe243       O259   2.060       .  S
Fe243       O249   2.081       .  S
Fe243       O256   2.083       .  S
Fe243       O248   2.068       .  S
Fe243       O254   1.968       .  S
Fe244       O247   2.075       .  S
Fe244       O251   2.065       .  S
Fe244       O255   2.062       .  S
Fe244       O260   2.063       .  S
Fe244       O254   1.959       .  S
Fe245       O263   2.061       .  S
Fe245       O250   2.063       .  S
Fe245       O257   2.061       .  S
Fe245       O246   2.066       .  S
Fe245       O254   1.969       .  S
O246        C253   1.266       .  A
O247        C261   1.268       .  A
O248        C253   1.267       .  A
O249        C252   1.275       .  A
O250        C262   1.272       .  A
O251        C264   1.267       .  A
C252        O257   1.272       .  A
C252       C2428   1.482       .  S
C253       C2505   1.493       .  S
O255        C258   1.271       .  A
O256        C258   1.274       .  A
C258       C2449   1.511   1_554  S
O259        C264   1.267       .  A
O260        C262   1.271       .  A
C261        O263   1.266       .  A
C261       C2400   1.508       .  S
C262       C2785   1.490       .  S
C264       C2365   1.485       .  S
Fe265       O281   2.090       .  S
Fe265       O271   2.058       .  S
Fe265       O278   2.053       .  S
Fe265       O270   2.082       .  S
Fe265       O276   1.946       .  S
Fe266       O269   2.081       .  S
Fe266       O273   2.067       .  S
Fe266       O277   2.085       .  S
Fe266       O282   2.075       .  S
Fe266       O276   1.950       .  S
Fe267       O285   2.066       .  S
Fe267       O272   2.068       .  S
Fe267       O279   2.079       .  S
Fe267       O268   2.059       .  S
Fe267       O276   1.947       .  S
O268        C275   1.270       .  A
O269        C283   1.271       .  A
O270        C275   1.273       .  A
O271        C274   1.268       .  A
O272        C284   1.271       .  A
O273        C286   1.275       .  A
C274        O279   1.271       .  A
C274       C2813   1.498       .  S
C275       C2421   1.488       .  S
O277        C280   1.268       .  A
O278        C280   1.263       .  A
C280       C2288   1.481       .  S
O281        C286   1.277       .  A
O282        C284   1.274       .  A
C283        O285   1.270       .  A
C283       C2309   1.491       .  S
C284       C2337   1.506       .  S
C286       C2456   1.506       .  S
Fe287       O303   2.077       .  S
Fe287       O293   2.064       .  S
Fe287       O300   2.062       .  S
Fe287       O292   2.071       .  S
Fe287       O298   1.971       .  S
Fe288       O291   2.062       .  S
Fe288       O295   2.074       .  S
Fe288       O299   2.065       .  S
Fe288       O304   2.074       .  S
Fe288       O298   1.967       .  S
Fe289       O307   2.074       .  S
Fe289       O294   2.076       .  S
Fe289       O301   2.073       .  S
Fe289       O290   2.067       .  S
Fe289       O298   1.965       .  S
O290        C297   1.271       .  A
O291        C305   1.266       .  A
O292        C297   1.270       .  A
O293        C296   1.268       .  A
O294        C306   1.273       .  A
O295        C308   1.275       .  A
C296        O301   1.269       .  A
C296       C2680   1.498       .  S
C297       C2533   1.479       .  S
O299        C302   1.265       .  A
O300        C302   1.265       .  A
C302       C2281   1.497       .  S
O303        C308   1.275       .  A
O304        C306   1.274       .  A
C305        O307   1.269       .  A
C305       C2253   1.500       .  S
C306       C2225   1.499       .  S
C308       C2568   1.484       .  S
Fe309       O325   2.045       .  S
Fe309       O315   2.074       .  S
Fe309       O322   2.077       .  S
Fe309       O314   2.046       .  S
Fe309       O320   1.962       .  S
Fe310       O313   2.068       .  S
Fe310       O317   2.081       .  S
Fe310       O321   2.057       .  S
Fe310       O326   2.077       .  S
Fe310       O320   1.966       .  S
Fe311       O329   2.072       .  S
Fe311       O316   2.049       .  S
Fe311       O323   2.061       .  S
Fe311       O312   2.075       .  S
Fe311       O320   1.971       .  S
O312        C319   1.270       .  A
O313        C327   1.269       .  A
O314        C319   1.266       .  A
O315        C318   1.270       .  A
O316        C328   1.268       .  A
O317        C330   1.274       .  A
C318        O323   1.267       .  A
C318       C2064   1.486       .  S
C319       C2148   1.469       .  S
O321        C324   1.265       .  A
O322        C324   1.269       .  A
C324       C2169   1.500       .  S
O325        C330   1.268       .  A
O326        C328   1.272       .  A
C327        O329   1.269       .  A
C327       C2204   1.486       .  S
C328       C2092   1.508       .  S
C330       C2113   1.501       .  S
Fe331       O347   2.053       .  S
Fe331       O337   2.069       .  S
Fe331       O344   2.069       .  S
Fe331       O336   2.061       .  S
Fe331       O342   1.961       .  S
Fe332       O335   2.080       .  S
Fe332       O339   2.085       .  S
Fe332       O343   2.073       .  S
Fe332       O348   2.081       .  S
Fe332       O342   1.968       .  S
Fe333       O351   2.058       .  S
Fe333       O338   2.055       .  S
Fe333       O345   2.060       .  S
Fe333       O334   2.070       .  S
Fe333       O342   1.964       .  S
O334        C341   1.270       .  A
O335        C349   1.271       .  A
O336        C341   1.269       .  A
O337        C340   1.269       .  A
O338        C350   1.271       .  A
O339        C352   1.275       .  A
C340        O345   1.267       .  A
C340       C1973   1.489       .  S
C341       C2036   1.477       .  S
O343        C346   1.268       .  A
O344        C346   1.267       .  A
C346       C2176   1.493       .  S
O347        C352   1.271       .  A
O348        C350   1.274       .  A
C349        O351   1.266       .  A
C349       C2372   1.486       .  S
C350       C2344   1.495       .  S
C352       C2008   1.497       .  S
Fe353       O369   2.039       .  S
Fe353       O359   2.074       .  S
Fe353       O366   2.075       .  S
Fe353       O358   2.051       .  S
Fe353       O364   1.962       .  S
Fe354       O357   2.075       .  S
Fe354       O361   2.081       .  S
Fe354       O365   2.071       .  S
Fe354       O370   2.073       .  S
Fe354       O364   1.973       .  S
Fe355       O373   2.058       .  S
Fe355       O360   2.058       .  S
Fe355       O367   2.067       .  S
Fe355       O356   2.072       .  S
Fe355       O364   1.970       .  S
O356        C363   1.271       .  A
O357        C371   1.271       .  A
O358        C363   1.267       .  A
O359        C362   1.269       .  A
O360        C372   1.271       .  A
O361        C374   1.273       .  A
C362        O367   1.267       .  A
C362       C1833   1.491       .  S
C363       C1945   1.471   1_556  S
O365        C368   1.268       .  A
O366        C368   1.269       .  A
C368       C1861   1.497       .  S
O369        C374   1.267       .  A
O370        C372   1.271       .  A
C371        O373   1.267       .  A
C371       C1889   1.483       .  S
C372       C2085   1.500   1_556  S
C374       C1924   1.498       .  S
Fe375       O391   2.081   1_556  S
Fe375       O381   2.066       .  S
Fe375       O388   2.061       .  S
Fe375       O380   2.077       .  S
Fe375       O386   1.972       .  S
Fe376       O379   2.072       .  S
Fe376       O383   2.083   1_556  S
Fe376       O387   2.077       .  S
Fe376       O392   2.082       .  S
Fe376       O386   1.974       .  S
Fe377       O395   2.062       .  S
Fe377       O382   2.066       .  S
Fe377       O389   2.067       .  S
Fe377       O378   2.065       .  S
Fe377       O386   1.968       .  S
O378        C385   1.271       .  A
O379        C393   1.269       .  A
O380        C385   1.272       .  A
O381        C384   1.268       .  A
O382        C394   1.270       .  A
O383        C396   1.276       .  A
C384        O389   1.266       .  A
C384       C1749   1.498       .  S
C385       C1805   1.480       .  S
O387        C390   1.268       .  A
O388        C390   1.265       .  A
C390       C1868   1.499       .  S
O391        C396   1.275       .  A
O392        C394   1.274       .  A
C393        O395   1.268       .  A
C393       C2477   1.496       .  S
C394       C2232   1.500       .  S
C396       C1777   1.489       .  S
Fe397       O413   2.049       .  S
Fe397       O403   2.088       .  S
Fe397       O410   2.085       .  S
Fe397       O402   2.052       .  S
Fe397       O408   1.967       .  S
Fe398       O401   2.078       .  S
Fe398       O405   2.079       .  S
Fe398       O409   2.075       .  S
Fe398       O414   2.081       .  S
Fe398       O408   1.965       .  S
Fe399       O417   2.081       .  S
Fe399       O404   2.065       .  S
Fe399       O411   2.066       .  S
Fe399       O400   2.083       .  S
Fe399       O408   1.975       .  S
O400        C407   1.266       .  A
O401        C415   1.268       .  A
O402        C407   1.262       .  A
O403        C406   1.278       .  A
O404        C416   1.272       .  A
O405        C418   1.270       .  A
C406        O411   1.274       .  A
C406       C1812   1.480       .  S
C407       C1693   1.495       .  S
O409        C412   1.274       .  A
O410        C412   1.276       .  A
C412       C1784   1.501       .  S
O413        C418   1.263       .  A
O414        C416   1.276       .  A
C415        O417   1.269       .  A
C415       C1728   1.519       .  S
C416       C1665   1.481       .  S
C418       C2260   1.497       .  S
Fe419       O435   2.052       .  S
Fe419       O425   2.067       .  S
Fe419       O432   2.066       .  S
Fe419       O424   2.062       .  S
Fe419       O430   1.966       .  S
Fe420       O423   2.070       .  S
Fe420       O427   2.080       .  S
Fe420       O431   2.051       .  S
Fe420       O436   2.074       .  S
Fe420       O430   1.969       .  S
Fe421       O439   2.072       .  S
Fe421       O426   2.048       .  S
Fe421       O433   2.054       .  S
Fe421       O422   2.071       .  S
Fe421       O430   1.971       .  S
O422        C429   1.265       .  A
O423        C437   1.268       .  A
O424        C429   1.265       .  A
O425        C428   1.273       .  A
O426        C438   1.266       .  A
O427        C440   1.270       .  A
C428        O433   1.271       .  A
C428       C1952   1.475       .  S
C429       C1700   1.488       .  S
O431        C434   1.269       .  A
O432        C434   1.271       .  A
C434       C1917   1.481       .  S
O435        C440   1.266       .  A
O436        C438   1.272       .  A
C437        O439   1.269       .  A
C437       C3345   1.500       .  S
C438       C1637   1.467       .  S
C440       C2197   1.497       .  S
Fe441       O457   2.059       .  S
Fe441       O447   2.080       .  S
Fe441       O454   2.081       .  S
Fe441       O446   2.047       .  S
Fe441       O452   1.965       .  S
Fe442       O445   2.072       .  S
Fe442       O449   2.065       .  S
Fe442       O453   2.060       .  S
Fe442       O458   2.064       .  S
Fe442       O452   1.964       .  S
Fe443       O461   2.071       .  S
Fe443       O448   2.054       .  S
Fe443       O455   2.056       .  S
Fe443       O444   2.074       .  S
Fe443       O452   1.973       .  S
O444        C451   1.266       .  A
O445        C459   1.270       .  A
O446        C451   1.263       .  A
O447        C450   1.276       .  A
O448        C460   1.267       .  A
O449        C462   1.266       .  A
C450        O455   1.271       .  A
C450       C3408   1.478       .  S
C451       C1609   1.489       .  S
O453        C456   1.272       .  A
O454        C456   1.275       .  A
C456       C3380   1.494       .  S
O457        C462   1.265       .  A
O458        C460   1.270       .  A
C459        O461   1.270       .  A
C459       C1840   1.506       .  S
C460       C1644   1.482       .  S
C462       C3016   1.485       .  S
Fe463       O479   2.052       .  S
Fe463       O469   2.068       .  S
Fe463       O476   2.068       .  S
Fe463       O468   2.056       .  S
Fe463       O474   1.973       .  S
Fe464       O467   2.075       .  S
Fe464       O471   2.063       .  S
Fe464       O475   2.068       .  S
Fe464       O480   2.063       .  S
Fe464       O474   1.968       .  S
Fe465       O483   2.057       .  S
Fe465       O470   2.068       .  S
Fe465       O477   2.076       .  S
Fe465       O466   2.058       .  S
Fe465       O474   1.967       .  S
O466        C473   1.264       .  A
O467        C481   1.270       .  A
O468        C473   1.263       .  A
O469        C472   1.274       .  A
O470        C482   1.271       .  A
O471        C484   1.265       .  A
C472        O477   1.275       .  A
C472       C3324   1.483       .  S
C473       C1616   1.493       .  S
O475        C478   1.273       .  A
O476        C478   1.271       .  A
C478       C3289   1.474       .  S
O479        C484   1.264       .  A
O480        C482   1.269       .  A
C481        O483   1.266       .  A
C481       C1581   1.503       .  S
C482       C1553   1.488       .  S
C484       C3625   1.486       .  S
Fe485       O501   2.048       .  S
Fe485       O491   2.080       .  S
Fe485       O498   2.095       .  S
Fe485       O490   2.053       .  S
Fe485       O496   1.963       .  S
Fe486       O489   2.071       .  S
Fe486       O493   2.073       .  S
Fe486       O497   2.060       .  S
Fe486       O502   2.069       .  S
Fe486       O496   1.964       .  S
Fe487       O505   2.077       .  S
Fe487       O492   2.063       .  S
Fe487       O499   2.066       .  S
Fe487       O488   2.072       .  S
Fe487       O496   1.962       .  S
O488        C495   1.268       .  A
O489        C503   1.271       .  A
O490        C495   1.265       .  A
O491        C494   1.274       .  A
O492        C504   1.269       .  A
O493        C506   1.267       .  A
C494        O499   1.272       .  A
C494       C1497   1.480       .  S
C495       C1469   1.498       .  S
O497        C500   1.271       .  A
O498        C500   1.277       .  A
C500       C1532   1.486   1_554  S
O501        C506   1.264       .  A
O502        C504   1.270       .  A
C503        O505   1.271       .  A
C503       C3240   1.497       .  S
C504       C1560   1.493       .  S
C506       C1441   1.495       .  S
Fe507       O523   2.053       .  S
Fe507       O513   2.072       .  S
Fe507       O520   2.076       .  S
Fe507       O512   2.047       .  S
Fe507       O518   1.968       .  S
Fe508       O511   2.068       .  S
Fe508       O515   2.083       .  S
Fe508       O519   2.062       .  S
Fe508       O524   2.081       .  S
Fe508       O518   1.964       .  S
Fe509       O527   2.082       .  S
Fe509       O514   2.061       .  S
Fe509       O521   2.068   1_554  S
Fe509       O510   2.082       .  S
Fe509       O518   1.971       .  S
O510        C517   1.269       .  A
O511        C525   1.269       .  A
O512        C517   1.264       .  A
O513        C516   1.273   1_554  A
O514        C526   1.269       .  A
O515        C528   1.270       .  A
C516        O521   1.273       .  A
C516       C1392   1.483       .  S
C517       C1476   1.500       .  S
O519        C522   1.272       .  A
O520        C522   1.273       .  A
C522       C1420   1.488       .  S
O523        C528   1.265       .  A
O524        C526   1.274       .  A
C525        O527   1.272       .  A
C525       C1756   1.510       .  S
C526       C1672   1.488       .  S
C528       C1357   1.493       .  S
Fe529       O545   2.053       .  S
Fe529       O535   2.066       .  S
Fe529       O542   2.067       .  S
Fe529       O534   2.055       .  S
Fe529       O540   1.970       .  S
Fe530       O533   2.060       .  S
Fe530       O537   2.088       .  S
Fe530       O541   2.052       .  S
Fe530       O546   2.077       .  S
Fe530       O540   1.969       .  S
Fe531       O549   2.076       .  S
Fe531       O536   2.070       .  S
Fe531       O543   2.070       .  S
Fe531       O532   2.066       .  S
Fe531       O540   1.979       .  S
O532        C539   1.266       .  A
O533        C547   1.266       .  A
O534        C539   1.265       .  A
O535        C538   1.271       .  A
O536        C548   1.270       .  A
O537        C550   1.273       .  A
C538        O543   1.273       .  A
C538       C1273   1.498       .  S
C539       C1245   1.475       .  S
O541        C544   1.266       .  A
O542        C544   1.268       .  A
C544       C1301   1.498       .  S
O545        C550   1.268       .  A
O546        C548   1.274       .  A
C547        O549   1.270       .  A
C547       C3653   1.480       .  S
C548       C1336   1.496       .  S
C550       C1224   1.498       .  S
Fe551       O567   2.045       .  S
Fe551       O557   2.094       .  S
Fe551       O564   2.100       .  S
Fe551       O556   2.048       .  S
Fe551       O562   1.949       .  S
Fe552       O555   2.058       .  S
Fe552       O559   2.087       .  S
Fe552       O563   2.044       .  S
Fe552       O568   2.086       .  S
Fe552       O562   1.947       .  S
Fe553       O571   2.076       .  S
Fe553       O558   2.070       .  S
Fe553       O565   2.054       .  S
Fe553       O554   2.081       .  S
Fe553       O562   1.955       .  S
O554        C561   1.269       .  A
O555        C569   1.268       .  A
O556        C561   1.265       .  A
O557        C560   1.276       .  A
O558        C570   1.272       .  A
O559        C572   1.271       .  A
C560        O565   1.270       .  A
C560       C1168   1.480       .  S
C561       C1252   1.492       .  S
O563        C566   1.269       .  A
O564        C566   1.278       .  A
C566       C1189   1.497       .  S
O567        C572   1.264       .  A
O568        C570   1.275       .  A
C569        O571   1.271       .  A
C569       C2057   1.488       .  S
C570       C1140   1.497       .  S
C572       C1112   1.492       .  S
Fe573       O589   2.059       .  S
Fe573       O579   2.055   1_554  S
Fe573       O586   2.056       .  S
Fe573       O578   2.049       .  S
Fe573       O584   1.974       .  S
Fe574       O577   2.067       .  S
Fe574       O581   2.074       .  S
Fe574       O585   2.067       .  S
Fe574       O590   2.065       .  S
Fe574       O584   1.975       .  S
Fe575       O593   2.074       .  S
Fe575       O580   2.078       .  S
Fe575       O587   2.081   1_554  S
Fe575       O576   2.068       .  S
Fe575       O584   1.973       .  S
O576        C583   1.265       .  A
O577        C591   1.267       .  A
O578        C583   1.260       .  A
O579        C582   1.274       .  A
O580        C592   1.273       .  A
O581        C594   1.268       .  A
C582        O587   1.278       .  A
C582       C3793   1.479       .  S
C583       C1056   1.496       .  S
O585        C588   1.270       .  A
O586        C588   1.268       .  A
C588       C3765   1.472       .  S
O589        C594   1.266       .  A
O590        C592   1.273       .  A
C591        O593   1.269       .  A
C591       C1084   1.500       .  S
C592       C1329   1.505       .  S
C594       C3156   1.496       .  S
Fe595       O611   2.059       .  S
Fe595       O601   2.070       .  S
Fe595       O608   2.076       .  S
Fe595       O600   2.053       .  S
Fe595       O606   1.967       .  S
Fe596       O599   2.066       .  S
Fe596       O603   2.071       .  S
Fe596       O607   2.062       .  S
Fe596       O612   2.068       .  S
Fe596       O606   1.962       .  S
Fe597       O615   2.067       .  S
Fe597       O602   2.068       .  S
Fe597       O609   2.061       .  S
Fe597       O598   2.072       .  S
Fe597       O606   1.971       .  S
O598        C605   1.268       .  A
O599        C613   1.270       .  A
O600        C605   1.265       .  A
O601        C604   1.272       .  A
O602        C614   1.270       .  A
O603        C616   1.265       .  A
C604        O609   1.271       .  A
C604       C3569   1.477       .  S
C605       C1049   1.493       .  S
O607        C610   1.273       .  A
O608        C610   1.275       .  A
C610       C3548   1.487   1_554  S
O611        C616   1.264       .  A
O612        C614   1.270       .  A
C613        O615   1.270       .  A
C613       C1980   1.502       .  S
C614       C1021   1.491       .  S
C616       C3261   1.488       .  S
Fe617       O633   2.045       .  S
Fe617       O623   2.064       .  S
Fe617       O630   2.073       .  S
Fe617       O622   2.048       .  S
Fe617       O628   1.965       .  S
Fe618       O621   2.059       .  S
Fe618       O625   2.075       .  S
Fe618       O629   2.043       .  S
Fe618       O634   2.076       .  S
Fe618       O628   1.959       .  S
Fe619       O637   2.082       .  S
Fe619       O624   2.066       .  S
Fe619       O631   2.060       .  S
Fe619       O620   2.071       .  S
Fe619       O628   1.972       .  S
O620        C627   1.266       .  A
O621        C635   1.267       .  A
O622        C627   1.263       .  A
O623        C626   1.272       .  A
O624        C636   1.270       .  A
O625        C638   1.267       .  A
C626        O631   1.272       .  A
C626       C2141   1.469       .  S
C627        C965   1.484       .  S
O629        C632   1.269       .  A
O630        C632   1.272       .  A
C632       C2120   1.485       .  S
O633        C638   1.264       .  A
O634        C636   1.272       .  A
C635        O637   1.271       .  A
C635        C993   1.499       .  S
C636       C1133   1.489       .  S
C638       C1896   1.489       .  S
Fe639       O655   2.079       .  S
Fe639       O645   2.052       .  S
Fe639       O652   2.055       .  S
Fe639       O644   2.062       .  S
Fe639       O650   1.945       .  S
Fe640       O643   2.075       .  S
Fe640       O647   2.074       .  S
Fe640       O651   2.083       .  S
Fe640       O656   2.060       .  S
Fe640       O650   1.951       .  S
Fe641       O659   2.050       .  S
Fe641       O646   2.087       .  S
Fe641       O653   2.082       .  S
Fe641       O642   2.058       .  S
Fe641       O650   1.955       .  S
O642        C649   1.265       .  A
O643        C657   1.270       .  A
O644        C649   1.266       .  A
O645        C648   1.273       .  A
O646        C658   1.275       .  A
O647        C660   1.270       .  A
C648        O653   1.275       .  A
C648       C2029   1.479       .  S
C649        C972   1.490       .  S
O651        C654   1.273       .  A
O652        C654   1.269       .  A
C654       C2001   1.494       .  S
O655        C660   1.270       .  A
O656        C658   1.271       .  A
C657        O659   1.264       .  A
C657       C3513   1.493       .  S
C658       C1028   1.480       .  S
C660       C2316   1.503       .  S
Fe661       O677   2.075       .  S
Fe661       O667   2.067       .  S
Fe661       O674   2.063       .  S
Fe661       O666   2.073       .  S
Fe661       O672   1.970       .  S
Fe662       O665   2.067       .  S
Fe662       O669   2.068       .  S
Fe662       O673   2.073       .  S
Fe662       O678   2.065       .  S
Fe662       O672   1.974       .  S
Fe663       O681   2.071       .  S
Fe663       O668   2.074       .  S
Fe663       O675   2.078       .  S
Fe663       O664   2.067       .  S
Fe663       O672   1.968       .  S
O664        C671   1.272       .  A
O665        C679   1.267       .  A
O666        C671   1.274       .  A
O667        C670   1.267       .  A
O668        C680   1.274       .  A
O669        C682   1.274       .  A
C670        O675   1.269       .  A
C670       C1721   1.501       .  S
C671       C1385   1.491       .  S
O673        C676   1.266       .  A
O674        C676   1.265       .  A
C676        C937   1.500       .  S
O677        C682   1.275       .  A
O678        C680   1.271       .  A
C679        O681   1.268       .  A
C679       C1217   1.508       .  S
C680        C916   1.485       .  S
C682       C1413   1.481       .  S
Fe683       O699   2.073       .  S
Fe683       O689   2.050       .  S
Fe683       O696   2.049       .  S
Fe683       O688   2.073       .  S
Fe683       O694   1.975       .  S
Fe684       O687   2.082       .  S
Fe684       O691   2.081       .  S
Fe684       O695   2.087       .  S
Fe684       O700   2.080       .  S
Fe684       O694   1.977       .  S
Fe685       O703   2.060       .  S
Fe685       O690   2.072       .  S
Fe685       O697   2.071       .  S
Fe685       O686   2.058       .  S
Fe685       O694   1.969       .  S
O686        C693   1.270       .  A
O687        C701   1.271       .  A
O688        C693   1.272       .  A
O689        C692   1.264       .  A
O690        C702   1.272       .  A
O691        C704   1.275       .  A
C692        O697   1.268       .  A
C692       C1588   1.494       .  S
C693       C1504   1.481       .  S
O695        C698   1.270       .  A
O696        C698   1.264       .  A
C698        C944   1.502       .  S
O699        C704   1.272       .  A
O700        C702   1.273       .  A
C701        O703   1.266       .  A
C701       C2708   1.504       .  S
C702        C888   1.499       .  S
C704       C1525   1.484       .  S
Fe705       O721   2.051       .  S
Fe705       O711   2.077       .  S
Fe705       O718   2.060       .  S
Fe705       O710   2.050       .  S
Fe705       O716   1.967       .  S
Fe706       O709   2.067       .  S
Fe706       O713   2.072       .  S
Fe706       O717   2.075       .  S
Fe706       O722   2.064       .  S
Fe706       O716   1.971       .  S
Fe707       O725   2.054       .  S
Fe707       O712   2.063       .  S
Fe707       O719   2.065       .  S
Fe707       O708   2.063       .  S
Fe707       O716   1.965       .  S
O708        C715   1.268       .  A
O709        C723   1.269       .  A
O710        C715   1.267       .  A
O711        C714   1.270       .  A
O712        C724   1.272       .  A
O713        C726   1.274       .  A
C714        O719   1.267       .  A
C714       C2589   1.487       .  S
C715       C2897   1.487       .  S
O717        C720   1.267       .  A
O718        C720   1.265       .  A
C720        C860   1.502       .  S
O721        C726   1.271       .  A
O722        C724   1.270       .  A
C723        O725   1.265       .  A
C723       C1105   1.493       .  S
C724        C832   1.473       .  S
C726       C2932   1.489       .  S
Fe727       O743   2.076       .  S
Fe727       O733   2.068       .  S
Fe727       O740   2.065       .  S
Fe727       O732   2.086       .  S
Fe727       O738   1.958       .  S
Fe728       O731   2.080       .  S
Fe728       O735   2.059       .  S
Fe728       O739   2.086       .  S
Fe728       O744   2.074       .  S
Fe728       O738   1.958       .  S
Fe729       O747   2.047       .  S
Fe729       O734   2.073       .  S
Fe729       O741   2.078       .  S
Fe729       O730   2.045       .  S
Fe729       O738   1.951       .  S
O730        C737   1.268       .  A
O731        C745   1.273       .  A
O732        C737   1.273       .  A
O733        C736   1.270       .  A
O734        C746   1.269       .  A
O735        C748   1.269       .  A
C736        O741   1.269       .  A
C736       C2393   1.493       .  S
C737       C2736   1.498       .  S
O739        C742   1.273       .  A
O740        C742   1.271       .  A
C742        C853   1.492       .  S
O743        C748   1.271       .  A
O744        C746   1.269       .  A
C745        O747   1.267       .  A
C745       C1448   1.480       .  S
C746        C881   1.483       .  S
C748       C2764   1.497       .  S
Fe749       O765   2.057   1_556  S
Fe749       O755   2.075       .  S
Fe749       O762   2.063       .  S
Fe749       O754   2.061       .  S
Fe749       O760   1.952       .  S
Fe750       O753   2.064   1_556  S
Fe750       O757   2.081   1_556  S
Fe750       O761   2.067       .  S
Fe750       O766   2.088       .  S
Fe750       O760   1.961       .  S
Fe751       O769   2.075       .  S
Fe751       O756   2.051       .  S
Fe751       O763   2.076       .  S
Fe751       O752   2.081       .  S
Fe751       O760   1.954       .  S
O752        C759   1.273       .  A
O753        C767   1.268   1_554  A
O754        C759   1.270       .  A
O755        C758   1.269       .  A
O756        C768   1.269       .  A
O757        C770   1.274       .  A
C758        O763   1.270       .  A
C758       C1077   1.486       .  S
C759       C1280   1.492       .  S
O761        C764   1.267       .  A
O762        C764   1.266       .  A
C764        C797   1.480       .  S
O765        C770   1.272       .  A
O766        C768   1.274       .  A
C767        O769   1.270       .  A
C767       C1364   1.505   1_556  S
C768        C909   1.478       .  S
C770       C1308   1.496       .  S
Fe771       O787   2.053       .  S
Fe771       O777   2.072       .  S
Fe771       O784   2.064       .  S
Fe771       O776   2.058       .  S
Fe771       O782   1.957       .  S
Fe772       O775   2.065       .  S
Fe772       O779   2.093       .  S
Fe772       O783   2.060       .  S
Fe772       O788   2.077       .  S
Fe772       O782   1.964       .  S
Fe773       O791   2.080       .  S
Fe773       O778   2.044       .  S
Fe773       O785   2.064       .  S
Fe773       O774   2.082       .  S
Fe773       O782   1.962       .  S
O774        C781   1.270       .  A
O775        C789   1.268       .  A
O776        C781   1.267       .  A
O777        C780   1.270       .  A
O778        C790   1.268       .  A
O779        C792   1.277       .  A
C780        O785   1.269       .  A
C780       C1000   1.488       .  S
C781       C1161   1.480   1_556  S
O783        C786   1.265       .  A
O784        C786   1.266       .  A
C786        C804   1.489       .  S
O787        C792   1.272       .  A
O788        C790   1.273       .  A
C789        O791   1.270       .  A
C789       C2848   1.484       .  S
C790        C825   1.479   1_556  S
C792       C1196   1.496       .  S
C793        C794   1.411       .  A
C793        C798   1.412       .  A
C793        C811   1.450   1_556  S
C794        C799   1.496       .  S
C794        C795   1.412       .  A
C795        C796   1.409       .  A
C795        C800   1.451       .  S
C796        C797   1.411       .  A
C796        C812   1.451       .  S
C797        C798   1.413       .  A
C798        C801   1.451   1_556  S
C799        C802   1.410       .  A
C799        C806   1.410       .  A
C800        N817   1.157       .  T
C801        N819   1.157       .  T
C802        C803   1.410       .  A
C802        C807   1.451       .  S
C803        C804   1.417       .  A
C803        C809   1.452       .  S
C804        C805   1.417       .  A
C805        C806   1.411       .  A
C805        C808   1.451       .  S
C806        C810   1.451       .  S
C807        N814   1.157   1_556  T
C808        N815   1.157       .  T
C809        N813   1.157       .  T
C810        N816   1.157       .  T
C811        N820   1.157       .  T
C812        N818   1.157       .  T
C821        C822   1.409       .  A
C821        C826   1.412       .  A
C821        C839   1.449       .  S
C822        C827   1.487       .  S
C822        C823   1.409       .  A
C823        C824   1.402       .  A
C823        C828   1.453       .  S
C824        C825   1.416       .  A
C824        C840   1.454       .  S
C825        C826   1.414       .  A
C826        C829   1.450       .  S
C827        C830   1.409       .  A
C827        C834   1.411       .  A
C828        N845   1.157       .  T
C829        N847   1.158       .  T
C830        C831   1.407       .  A
C830        C835   1.451       .  S
C831        C832   1.414       .  A
C831        C837   1.452       .  S
C832        C833   1.409       .  A
C833        C834   1.407       .  A
C833        C836   1.450       .  S
C834        C838   1.450       .  S
C835        N842   1.157       .  T
C836        N843   1.157       .  T
C837        N841   1.157       .  T
C838        N844   1.157       .  T
C839        N848   1.157       .  T
C840        N846   1.157       .  T
C849        C850   1.411       .  A
C849        C854   1.412       .  A
C849        C867   1.450       .  S
C850        C855   1.502   1_565  S
C850        C851   1.412       .  A
C851        C852   1.412       .  A
C851        C856   1.451       .  S
C852        C853   1.416       .  A
C852        C868   1.450       .  S
C853        C854   1.415       .  A
C854        C857   1.450       .  S
C855        C858   1.411       .  A
C855        C862   1.410       .  A
C856        N873   1.157   1_565  T
C857        N875   1.157       .  T
C858        C859   1.415       .  A
C858        C863   1.451       .  S
C859        C860   1.421       .  A
C859        C865   1.450       .  S
C860        C861   1.421       .  A
C861        C862   1.411       .  A
C861        C864   1.451       .  S
C862        C866   1.452       .  S
C863        N870   1.157       .  T
C864        N871   1.157       .  T
C865        N869   1.157       .  T
C866        N872   1.157       .  T
C867        N876   1.157       .  T
C868        N874   1.157       .  T
C877        C878   1.412       .  A
C877        C882   1.413       .  A
C877        C895   1.450       .  S
C878        C883   1.500       .  S
C878        C879   1.412       .  A
C879        C880   1.412       .  A
C879        C884   1.451       .  S
C880        C881   1.412       .  A
C880        C896   1.451       .  S
C881        C882   1.410       .  A
C882        C885   1.449       .  S
C883        C886   1.408       .  A
C883        C890   1.411       .  A
C884        N901   1.157       .  T
C885        N903   1.157       .  T
C886        C887   1.408       .  A
C886        C891   1.453       .  S
C887        C888   1.419       .  A
C887        C893   1.450       .  S
C888        C889   1.419       .  A
C889        C890   1.418       .  A
C889        C892   1.450       .  S
C890        C894   1.449       .  S
C891        N898   1.157       .  T
C892        N899   1.157       .  T
C893        N897   1.156       .  T
C894        N900   1.157       .  T
C895        N904   1.157       .  T
C896        N902   1.157       .  T
C905        C906   1.411       .  A
C905        C910   1.408       .  A
C905        C923   1.452   1_545  S
C906        C911   1.495   1_545  S
C906        C907   1.412       .  A
C907        C908   1.411       .  A
C907        C912   1.449       .  S
C908        C909   1.411       .  A
C908        C924   1.450       .  S
C909        C910   1.411       .  A
C910        C913   1.449       .  S
C911        C914   1.411       .  A
C911        C918   1.410   1_565  A
C912        N929   1.157       .  T
C913        N931   1.156       .  T
C914        C915   1.414       .  A
C914        C919   1.449       .  S
C915        C916   1.415       .  A
C915        C921   1.450       .  S
C916        C917   1.414       .  A
C917        C918   1.406   1_565  A
C917        C920   1.451       .  S
C918        C922   1.452       .  S
C919        N926   1.157       .  T
C920        N927   1.157       .  T
C921        N925   1.157       .  T
C922        N928   1.157       .  T
C923        N932   1.157       .  T
C924        N930   1.157       .  T
C933        C934   1.411       .  A
C933        C938   1.415       .  A
C933        C951   1.451       .  S
C934        C939   1.506       .  S
C934        C935   1.412       .  A
C935        C936   1.413       .  A
C935        C940   1.451       .  S
C936        C937   1.417       .  A
C936        C952   1.452       .  S
C937        C938   1.419       .  A
C938        C941   1.451       .  S
C939        C942   1.411       .  A
C939        C946   1.412       .  A
C940        N957   1.157       .  T
C941        N959   1.157       .  T
C942        C943   1.412       .  A
C942        C947   1.451       .  S
C943        C944   1.420       .  A
C943        C949   1.453       .  S
C944        C945   1.419       .  A
C945        C946   1.416       .  A
C945        C948   1.450       .  S
C946        C950   1.450       .  S
C947        N954   1.157       .  T
C948        N955   1.157       .  T
C949        N953   1.158       .  T
C950        N956   1.157       .  T
C951        N960   1.157       .  T
C952        N958   1.158       .  T
C961        C962   1.409       .  A
C961        C966   1.408       .  A
C961        C979   1.452       .  S
C962        C967   1.493   1_655  S
C962        C963   1.410       .  A
C963        C964   1.412       .  A
C963        C968   1.450       .  S
C964        C965   1.414       .  A
C964        C980   1.450       .  S
C965        C966   1.416       .  A
C966        C969   1.452       .  S
C967        C970   1.409       .  A
C967        C974   1.408       .  A
C968        N985   1.157       .  T
C969        N987   1.157       .  T
C970        C971   1.412       .  A
C970        C975   1.450       .  S
C971        C972   1.418       .  A
C971        C977   1.450       .  S
C972        C973   1.419       .  A
C973        C974   1.408       .  A
C973        C976   1.452       .  S
C974        C978   1.452       .  S
C975        N982   1.157       .  T
C976        N983   1.158       .  T
C977        N981   1.157       .  T
C978        N984   1.157   1_455  T
C979        N988   1.157   1_655  T
C980        N986   1.157       .  T
C989        C990   1.407       .  A
C989        C994   1.411       .  A
C989       C1007   1.451       .  S
C990        C995   1.497       .  S
C990        C991   1.410       .  A
C991        C992   1.412       .  A
C991        C996   1.451       .  S
C992        C993   1.420       .  A
C992       C1008   1.451       .  S
C993        C994   1.422       .  A
C994        C997   1.451       .  S
C995        C998   1.410       .  A
C995       C1002   1.410       .  A
C996       N1013   1.157       .  T
C997       N1015   1.157       .  T
C998        C999   1.408       .  A
C998       C1003   1.451       .  S
C999       C1000   1.415       .  A
C999       C1005   1.452       .  S
C1000      C1001   1.417       .  A
C1001      C1002   1.413       .  A
C1001      C1004   1.450       .  S
C1002      C1006   1.450       .  S
C1003      N1010   1.157       .  T
C1004      N1011   1.157       .  T
C1005      N1009   1.157       .  T
C1006      N1012   1.157       .  T
C1007      N1016   1.157       .  T
C1008      N1014   1.158       .  T
C1017      C1018   1.413       .  A
C1017      C1022   1.416       .  A
C1017      C1035   1.449       .  S
C1018      C1023   1.497       .  S
C1018      C1019   1.409       .  A
C1019      C1020   1.405   1_556  A
C1019      C1024   1.453       .  S
C1020      C1021   1.418       .  A
C1020      C1036   1.451       .  S
C1021      C1022   1.415   1_554  A
C1022      C1025   1.450   1_556  S
C1023      C1026   1.413       .  A
C1023      C1030   1.412       .  A
C1024      N1041   1.157       .  T
C1025      N1043   1.157       .  T
C1026      C1027   1.413       .  A
C1026      C1031   1.450       .  S
C1027      C1028   1.413       .  A
C1027      C1033   1.451       .  S
C1028      C1029   1.411       .  A
C1029      C1030   1.408       .  A
C1029      C1032   1.450       .  S
C1030      C1034   1.452       .  S
C1031      N1038   1.157       .  T
C1032      N1039   1.157       .  T
C1033      N1037   1.158       .  T
C1034      N1040   1.157       .  T
C1035      N1044   1.157       .  T
C1036      N1042   1.156       .  T
C1045      C1046   1.409       .  A
C1045      C1050   1.411       .  A
C1045      C1063   1.451       .  S
C1046      C1051   1.497       .  S
C1046      C1047   1.410       .  A
C1047      C1048   1.411       .  A
C1047      C1052   1.451       .  S
C1048      C1049   1.418       .  A
C1048      C1064   1.452       .  S
C1049      C1050   1.418       .  A
C1050      C1053   1.451       .  S
C1051      C1054   1.409       .  A
C1051      C1058   1.409       .  A
C1052      N1069   1.157   1_554  T
C1053      N1071   1.157       .  T
C1054      C1055   1.412       .  A
C1054      C1059   1.451       .  S
C1055      C1056   1.420       .  A
C1055      C1061   1.451       .  S
C1056      C1057   1.420       .  A
C1057      C1058   1.411       .  A
C1057      C1060   1.452       .  S
C1058      C1062   1.452       .  S
C1059      N1066   1.157       .  T
C1060      N1067   1.157       .  T
C1061      N1065   1.157   1_554  T
C1062      N1068   1.157       .  T
C1063      N1072   1.157       .  T
C1064      N1070   1.158       .  T
C1073      C1074   1.411       .  A
C1073      C1078   1.411       .  A
C1073      C1091   1.450       .  S
C1074      C1079   1.503   1_556  S
C1074      C1075   1.414   1_556  A
C1075      C1076   1.416       .  A
C1075      C1080   1.449       .  S
C1076      C1077   1.412   1_554  A
C1076      C1092   1.450       .  S
C1077      C1078   1.414       .  A
C1078      C1081   1.451       .  S
C1079      C1082   1.410       .  A
C1079      C1086   1.411   1_554  A
C1080      N1097   1.157       .  T
C1081      N1099   1.157       .  T
C1082      C1083   1.411       .  A
C1082      C1087   1.452       .  S
C1083      C1084   1.419   1_655  A
C1083      C1089   1.451       .  S
C1084      C1085   1.418       .  A
C1085      C1086   1.417   1_454  A
C1085      C1088   1.450       .  S
C1086      C1090   1.449       .  S
C1087      N1094   1.157       .  T
C1088      N1095   1.157   1_554  T
C1089      N1093   1.157       .  T
C1090      N1096   1.157       .  T
C1091      N1100   1.157       .  T
C1092      N1098   1.158       .  T
C1101      C1102   1.409       .  A
C1101      C1106   1.409       .  A
C1101      C1119   1.453       .  S
C1102      C1107   1.498       .  S
C1102      C1103   1.412       .  A
C1103      C1104   1.413       .  A
C1103      C1108   1.450       .  S
C1104      C1105   1.416       .  A
C1104      C1120   1.451       .  S
C1105      C1106   1.422       .  A
C1106      C1109   1.453       .  S
C1107      C1110   1.412       .  A
C1107      C1114   1.410       .  A
C1108      N1125   1.157       .  T
C1109      N1127   1.157       .  T
C1110      C1111   1.414       .  A
C1110      C1115   1.450       .  S
C1111      C1112   1.415       .  A
C1111      C1117   1.450       .  S
C1112      C1113   1.419       .  A
C1113      C1114   1.408       .  A
C1113      C1116   1.453       .  S
C1114      C1118   1.452       .  S
C1115      N1122   1.157       .  T
C1116      N1123   1.157       .  T
C1117      N1121   1.157       .  T
C1118      N1124   1.157       .  T
C1119      N1128   1.157       .  T
C1120      N1126   1.158       .  T
C1129      C1130   1.413       .  A
C1129      C1134   1.413       .  A
C1129      C1147   1.450       .  S
C1130      C1135   1.501       .  S
C1130      C1131   1.411       .  A
C1131      C1132   1.409       .  A
C1131      C1136   1.451       .  S
C1132      C1133   1.415       .  A
C1132      C1148   1.451       .  S
C1133      C1134   1.415       .  A
C1134      C1137   1.450       .  S
C1135      C1138   1.411       .  A
C1135      C1142   1.412       .  A
C1136      N1153   1.157       .  T
C1137      N1155   1.157       .  T
C1138      C1139   1.409       .  A
C1138      C1143   1.453       .  S
C1139      C1140   1.417       .  A
C1139      C1145   1.450       .  S
C1140      C1141   1.418       .  A
C1141      C1142   1.416       .  A
C1141      C1144   1.450       .  S
C1142      C1146   1.450       .  S
C1143      N1150   1.157       .  T
C1144      N1151   1.157       .  T
C1145      N1149   1.157       .  T
C1146      N1152   1.157       .  T
C1147      N1156   1.157       .  T
C1148      N1154   1.157       .  T
C1157      C1158   1.412       .  A
C1157      C1162   1.410       .  A
C1157      C1175   1.451       .  S
C1158      C1163   1.500       .  S
C1158      C1159   1.414       .  A
C1159      C1160   1.413       .  A
C1159      C1164   1.449       .  S
C1160      C1161   1.410       .  A
C1160      C1176   1.451       .  S
C1161      C1162   1.412       .  A
C1162      C1165   1.451       .  S
C1163      C1166   1.414       .  A
C1163      C1170   1.412       .  A
C1164      N1181   1.157       .  T
C1165      N1183   1.157       .  T
C1166      C1167   1.414       .  A
C1166      C1171   1.449       .  S
C1167      C1168   1.410       .  A
C1167      C1173   1.450       .  S
C1168      C1169   1.412       .  A
C1169      C1170   1.410       .  A
C1169      C1172   1.452       .  S
C1170      C1174   1.451       .  S
C1171      N1178   1.157       .  T
C1172      N1179   1.157       .  T
C1173      N1177   1.157       .  T
C1174      N1180   1.157       .  T
C1175      N1184   1.157       .  T
C1176      N1182   1.157   1_554  T
C1185      C1186   1.413       .  A
C1185      C1190   1.416       .  A
C1185      C1203   1.450       .  S
C1186      C1191   1.502       .  S
C1186      C1187   1.411       .  A
C1187      C1188   1.407       .  A
C1187      C1192   1.453       .  S
C1188      C1189   1.420       .  A
C1188      C1204   1.453       .  S
C1189      C1190   1.418       .  A
C1190      C1193   1.451       .  S
C1191      C1194   1.411       .  A
C1191      C1198   1.413       .  A
C1192      N1209   1.157       .  T
C1193      N1211   1.158       .  T
C1194      C1195   1.410       .  A
C1194      C1199   1.451       .  S
C1195      C1196   1.419       .  A
C1195      C1201   1.452       .  S
C1196      C1197   1.418       .  A
C1197      C1198   1.413       .  A
C1197      C1200   1.451       .  S
C1198      C1202   1.451       .  S
C1199      N1206   1.157       .  T
C1200      N1207   1.157       .  T
C1201      N1205   1.157       .  T
C1202      N1208   1.157       .  T
C1203      N1212   1.157       .  T
C1204      N1210   1.157       .  T
C1213      C1214   1.409       .  A
C1213      C1218   1.414   1_545  A
C1213      C1231   1.451       .  S
C1214      C1219   1.501       .  S
C1214      C1215   1.409       .  A
C1215      C1216   1.411   1_545  A
C1215      C1220   1.452       .  S
C1216      C1217   1.423       .  A
C1216      C1232   1.452       .  S
C1217      C1218   1.423       .  A
C1218      C1221   1.450       .  S
C1219      C1222   1.410       .  A
C1219      C1226   1.411       .  A
C1220      N1237   1.157       .  T
C1221      N1239   1.157       .  T
C1222      C1223   1.414       .  A
C1222      C1227   1.451       .  S
C1223      C1224   1.419       .  A
C1223      C1229   1.449       .  S
C1224      C1225   1.418       .  A
C1225      C1226   1.411       .  A
C1225      C1228   1.452       .  S
C1226      C1230   1.451       .  S
C1227      N1234   1.157       .  T
C1228      N1235   1.157       .  T
C1229      N1233   1.157       .  T
C1230      N1236   1.157       .  T
C1231      N1240   1.157       .  T
C1232      N1238   1.158       .  T
C1241      C1242   1.412       .  A
C1241      C1246   1.409       .  A
C1241      C1259   1.451       .  S
C1242      C1247   1.494       .  S
C1242      C1243   1.412       .  A
C1243      C1244   1.409       .  A
C1243      C1248   1.450       .  S
C1244      C1245   1.410       .  A
C1244      C1260   1.451       .  S
C1245      C1246   1.411       .  A
C1246      C1249   1.451       .  S
C1247      C1250   1.410       .  A
C1247      C1254   1.409       .  A
C1248      N1265   1.157       .  T
C1249      N1267   1.157       .  T
C1250      C1251   1.412       .  A
C1250      C1255   1.450       .  S
C1251      C1252   1.418       .  A
C1251      C1257   1.451       .  S
C1252      C1253   1.419       .  A
C1253      C1254   1.407       .  A
C1253      C1256   1.452       .  S
C1254      C1258   1.452       .  S
C1255      N1262   1.157       .  T
C1256      N1263   1.157       .  T
C1257      N1261   1.157       .  T
C1258      N1264   1.157       .  T
C1259      N1268   1.157       .  T
C1260      N1266   1.157       .  T
C1269      C1270   1.406       .  A
C1269      C1274   1.410       .  A
C1269      C1287   1.452       .  S
C1270      C1275   1.494       .  S
C1270      C1271   1.409       .  A
C1271      C1272   1.411       .  A
C1271      C1276   1.452       .  S
C1272      C1273   1.419       .  A
C1272      C1288   1.450       .  S
C1273      C1274   1.423       .  A
C1274      C1277   1.452       .  S
C1275      C1278   1.407       .  A
C1275      C1282   1.409       .  A
C1276      N1293   1.157       .  T
C1277      N1295   1.158       .  T
C1278      C1279   1.407       .  A
C1278      C1283   1.453       .  S
C1279      C1280   1.419       .  A
C1279      C1285   1.450       .  S
C1280      C1281   1.419       .  A
C1281      C1282   1.413       .  A
C1281      C1284   1.451       .  S
C1282      C1286   1.450       .  S
C1283      N1290   1.157       .  T
C1284      N1291   1.157       .  T
C1285      N1289   1.157       .  T
C1286      N1292   1.157       .  T
C1287      N1296   1.157       .  T
C1288      N1294   1.157       .  T
C1297      C1298   1.407       .  A
C1297      C1302   1.411       .  A
C1297      C1315   1.451       .  S
C1298      C1303   1.492       .  S
C1298      C1299   1.407       .  A
C1299      C1300   1.407       .  A
C1299      C1304   1.454       .  S
C1300      C1301   1.423       .  A
C1300      C1316   1.452       .  S
C1301      C1302   1.423       .  A
C1302      C1305   1.451       .  S
C1303      C1306   1.407       .  A
C1303      C1310   1.407       .  A
C1304      N1321   1.157       .  T
C1305      N1323   1.158       .  T
C1306      C1307   1.409       .  A
C1306      C1311   1.452       .  S
C1307      C1308   1.420       .  A
C1307      C1313   1.452       .  S
C1308      C1309   1.422       .  A
C1309      C1310   1.410       .  A
C1309      C1312   1.450       .  S
C1310      C1314   1.452       .  S
C1311      N1318   1.157       .  T
C1312      N1319   1.157       .  T
C1313      N1317   1.157       .  T
C1314      N1320   1.157       .  T
C1315      N1324   1.157       .  T
C1316      N1322   1.157       .  T
C1325      C1326   1.408       .  A
C1325      C1330   1.408       .  A
C1325      C1343   1.451       .  S
C1326      C1331   1.498   1_455  S
C1326      C1327   1.409       .  A
C1327      C1328   1.416       .  A
C1327      C1332   1.450   1_455  S
C1328      C1329   1.423       .  A
C1328      C1344   1.449       .  S
C1329      C1330   1.422       .  A
C1330      C1333   1.453       .  S
C1331      C1334   1.410       .  A
C1331      C1338   1.411       .  A
C1332      N1349   1.157       .  T
C1333      N1351   1.157       .  T
C1334      C1335   1.415       .  A
C1334      C1339   1.450   1_655  S
C1335      C1336   1.420       .  A
C1335      C1341   1.450       .  S
C1336      C1337   1.416       .  A
C1337      C1338   1.409       .  A
C1337      C1340   1.451       .  S
C1338      C1342   1.452       .  S
C1339      N1346   1.157       .  T
C1340      N1347   1.157       .  T
C1341      N1345   1.157       .  T
C1342      N1348   1.157       .  T
C1343      N1352   1.157       .  T
C1344      N1350   1.158       .  T
C1353      C1354   1.411       .  A
C1353      C1358   1.412       .  A
C1353      C1371   1.451   1_554  S
C1354      C1359   1.500       .  S
C1354      C1355   1.410       .  A
C1355      C1356   1.414       .  A
C1355      C1360   1.450       .  S
C1356      C1357   1.417       .  A
C1356      C1372   1.451       .  S
C1357      C1358   1.416       .  A
C1358      C1361   1.452   1_554  S
C1359      C1362   1.408       .  A
C1359      C1366   1.408       .  A
C1360      N1377   1.157       .  T
C1361      N1379   1.157       .  T
C1362      C1363   1.411   1_565  A
C1362      C1367   1.452       .  S
C1363      C1364   1.425       .  A
C1363      C1369   1.452       .  S
C1364      C1365   1.423   1_554  A
C1365      C1366   1.415   1_546  A
C1365      C1368   1.451       .  S
C1366      C1370   1.450       .  S
C1367      N1374   1.157       .  T
C1368      N1375   1.158       .  T
C1369      N1373   1.158       .  T
C1370      N1376   1.157   1_554  T
C1371      N1380   1.157       .  T
C1372      N1378   1.157       .  T
C1381      C1382   1.409       .  A
C1381      C1386   1.411       .  A
C1381      C1399   1.450       .  S
C1382      C1387   1.495       .  S
C1382      C1383   1.410       .  A
C1383      C1384   1.410       .  A
C1383      C1388   1.452       .  S
C1384      C1385   1.418       .  A
C1384      C1400   1.450       .  S
C1385      C1386   1.417       .  A
C1386      C1389   1.451       .  S
C1387      C1390   1.410       .  A
C1387      C1394   1.410       .  A
C1388      N1405   1.157       .  T
C1389      N1407   1.157       .  T
C1390      C1391   1.409       .  A
C1390      C1395   1.451       .  S
C1391      C1392   1.414       .  A
C1391      C1397   1.451       .  S
C1392      C1393   1.414       .  A
C1393      C1394   1.411       .  A
C1393      C1396   1.451       .  S
C1394      C1398   1.450       .  S
C1395      N1402   1.157       .  T
C1396      N1403   1.158       .  T
C1397      N1401   1.157       .  T
C1398      N1404   1.157       .  T
C1399      N1408   1.157       .  T
C1400      N1406   1.157       .  T
C1409      C1410   1.411       .  A
C1409      C1414   1.409       .  A
C1409      C1427   1.451       .  S
C1410      C1415   1.495       .  S
C1410      C1411   1.411       .  A
C1411      C1412   1.411       .  A
C1411      C1416   1.450       .  S
C1412      C1413   1.412       .  A
C1412      C1428   1.451       .  S
C1413      C1414   1.414       .  A
C1414      C1417   1.451       .  S
C1415      C1418   1.410       .  A
C1415      C1422   1.410       .  A
C1416      N1433   1.157       .  T
C1417      N1435   1.157       .  T
C1418      C1419   1.409       .  A
C1418      C1423   1.452       .  S
C1419      C1420   1.416       .  A
C1419      C1425   1.450       .  S
C1420      C1421   1.417       .  A
C1421      C1422   1.412       .  A
C1421      C1424   1.451       .  S
C1422      C1426   1.450       .  S
C1423      N1430   1.157       .  T
C1424      N1431   1.157       .  T
C1425      N1429   1.157       .  T
C1426      N1432   1.157       .  T
C1427      N1436   1.157       .  T
C1428      N1434   1.157       .  T
C1437      C1438   1.410       .  A
C1437      C1442   1.406       .  A
C1437      C1455   1.454       .  S
C1438      C1443   1.495       .  S
C1438      C1439   1.410       .  A
C1439      C1440   1.413       .  A
C1439      C1444   1.451       .  S
C1440      C1441   1.419       .  A
C1440      C1456   1.451       .  S
C1441      C1442   1.421       .  A
C1442      C1445   1.453       .  S
C1443      C1446   1.413       .  A
C1443      C1450   1.411       .  A
C1444      N1461   1.157       .  T
C1445      N1463   1.158       .  T
C1446      C1447   1.409       .  A
C1446      C1451   1.451       .  S
C1447      C1448   1.412       .  A
C1447      C1453   1.451       .  S
C1448      C1449   1.416       .  A
C1449      C1450   1.408       .  A
C1449      C1452   1.452       .  S
C1450      C1454   1.451       .  S
C1451      N1458   1.157       .  T
C1452      N1459   1.157       .  T
C1453      N1457   1.157       .  T
C1454      N1460   1.157       .  T
C1455      N1464   1.157       .  T
C1456      N1462   1.158       .  T
C1465      C1466   1.409       .  A
C1465      C1470   1.413       .  A
C1465      C1483   1.451       .  S
C1466      C1471   1.499       .  S
C1466      C1467   1.410       .  A
C1467      C1468   1.411       .  A
C1467      C1472   1.452       .  S
C1468      C1469   1.421       .  A
C1468      C1484   1.452       .  S
C1469      C1470   1.421       .  A
C1470      C1473   1.451       .  S
C1471      C1474   1.409       .  A
C1471      C1478   1.409       .  A
C1472      N1489   1.157       .  T
C1473      N1491   1.157       .  T
C1474      C1475   1.414       .  A
C1474      C1479   1.451       .  S
C1475      C1476   1.420       .  A
C1475      C1481   1.450       .  S
C1476      C1477   1.421       .  A
C1477      C1478   1.410       .  A
C1477      C1480   1.453       .  S
C1478      C1482   1.452       .  S
C1479      N1486   1.157       .  T
C1480      N1487   1.158       .  T
C1481      N1485   1.157   1_554  T
C1482      N1488   1.157       .  T
C1483      N1492   1.157       .  T
C1484      N1490   1.158       .  T
C1493      C1494   1.410       .  A
C1493      C1498   1.411       .  A
C1493      C1511   1.450       .  S
C1494      C1499   1.495       .  S
C1494      C1495   1.411       .  A
C1495      C1496   1.410       .  A
C1495      C1500   1.451       .  S
C1496      C1497   1.413       .  A
C1496      C1512   1.451       .  S
C1497      C1498   1.411       .  A
C1498      C1501   1.450       .  S
C1499      C1502   1.411       .  A
C1499      C1506   1.410       .  A
C1500      N1517   1.157       .  T
C1501      N1519   1.157       .  T
C1502      C1503   1.408       .  A
C1502      C1507   1.451       .  S
C1503      C1504   1.412       .  A
C1503      C1509   1.451       .  S
C1504      C1505   1.414       .  A
C1505      C1506   1.412       .  A
C1505      C1508   1.452       .  S
C1506      C1510   1.449       .  S
C1507      N1514   1.157       .  T
C1508      N1515   1.157       .  T
C1509      N1513   1.157       .  T
C1510      N1516   1.157       .  T
C1511      N1520   1.157       .  T
C1512      N1518   1.157       .  T
C1521      C1522   1.413       .  A
C1521      C1526   1.415       .  A
C1521      C1539   1.449       .  S
C1522      C1527   1.503       .  S
C1522      C1523   1.413       .  A
C1523      C1524   1.411       .  A
C1523      C1528   1.451       .  S
C1524      C1525   1.412       .  A
C1524      C1540   1.452       .  S
C1525      C1526   1.412       .  A
C1526      C1529   1.450       .  S
C1527      C1530   1.413       .  A
C1527      C1534   1.413       .  A
C1528      N1545   1.157       .  T
C1529      N1547   1.157       .  T
C1530      C1531   1.413       .  A
C1530      C1535   1.450       .  S
C1531      C1532   1.412       .  A
C1531      C1537   1.449   1_556  S
C1532      C1533   1.413       .  A
C1533      C1534   1.413       .  A
C1533      C1536   1.451       .  S
C1534      C1538   1.450       .  S
C1535      N1542   1.157       .  T
C1536      N1543   1.157       .  T
C1537      N1541   1.157       .  T
C1538      N1544   1.157       .  T
C1539      N1548   1.157       .  T
C1540      N1546   1.157       .  T
C1549      C1550   1.410       .  A
C1549      C1554   1.412       .  A
C1549      C1567   1.451       .  S
C1550      C1555   1.495       .  S
C1550      C1551   1.410       .  A
C1551      C1552   1.407       .  A
C1551      C1556   1.453       .  S
C1552      C1553   1.418       .  A
C1552      C1568   1.452       .  S
C1553      C1554   1.418       .  A
C1554      C1557   1.451       .  S
C1555      C1558   1.410       .  A
C1555      C1562   1.409       .  A
C1556      N1573   1.157       .  T
C1557      N1575   1.158       .  T
C1558      C1559   1.407       .  A
C1558      C1563   1.453       .  S
C1559      C1560   1.420   1_556  A
C1559      C1565   1.453       .  S
C1560      C1561   1.420       .  A
C1561      C1562   1.412   1_554  A
C1561      C1564   1.451       .  S
C1562      C1566   1.451       .  S
C1563      N1570   1.157       .  T
C1564      N1571   1.158       .  T
C1565      N1569   1.157       .  T
C1566      N1572   1.157       .  T
C1567      N1576   1.157       .  T
C1568      N1574   1.157       .  T
C1577      C1578   1.408       .  A
C1577      C1582   1.413       .  A
C1577      C1595   1.451       .  S
C1578      C1583   1.496       .  S
C1578      C1579   1.407       .  A
C1579      C1580   1.409       .  A
C1579      C1584   1.453       .  S
C1580      C1581   1.426       .  A
C1580      C1596   1.453       .  S
C1581      C1582   1.422       .  A
C1582      C1585   1.451       .  S
C1583      C1586   1.409       .  A
C1583      C1590   1.409       .  A
C1584      N1601   1.157       .  T
C1585      N1603   1.158       .  T
C1586      C1587   1.409       .  A
C1586      C1591   1.452       .  S
C1587      C1588   1.419       .  A
C1587      C1593   1.452       .  S
C1588      C1589   1.420       .  A
C1589      C1590   1.412       .  A
C1589      C1592   1.451       .  S
C1590      C1594   1.451       .  S
C1591      N1598   1.157       .  T
C1592      N1599   1.158       .  T
C1593      N1597   1.157       .  T
C1594      N1600   1.157       .  T
C1595      N1604   1.157       .  T
C1596      N1602   1.158       .  T
C1605      C1606   1.411       .  A
C1605      C1610   1.409       .  A
C1605      C1623   1.451       .  S
C1606      C1611   1.497       .  S
C1606      C1607   1.411       .  A
C1607      C1608   1.412       .  A
C1607      C1612   1.451       .  S
C1608      C1609   1.416       .  A
C1608      C1624   1.450       .  S
C1609      C1610   1.416       .  A
C1610      C1613   1.452       .  S
C1611      C1614   1.412       .  A
C1611      C1618   1.409       .  A
C1612      N1629   1.157       .  T
C1613      N1631   1.157       .  T
C1614      C1615   1.411       .  A
C1614      C1619   1.452       .  S
C1615      C1616   1.418       .  A
C1615      C1621   1.452       .  S
C1616      C1617   1.420       .  A
C1617      C1618   1.411       .  A
C1617      C1620   1.452       .  S
C1618      C1622   1.451       .  S
C1619      N1626   1.157       .  T
C1620      N1627   1.157       .  T
C1621      N1625   1.157       .  T
C1622      N1628   1.157       .  T
C1623      N1632   1.157       .  T
C1624      N1630   1.157       .  T
C1633      C1634   1.412       .  A
C1633      C1638   1.406       .  A
C1633      C1651   1.451       .  S
C1634      C1639   1.488       .  S
C1634      C1635   1.412       .  A
C1635      C1636   1.407       .  A
C1635      C1640   1.450       .  S
C1636      C1637   1.409       .  A
C1636      C1652   1.451       .  S
C1637      C1638   1.409       .  A
C1638      C1641   1.451       .  S
C1639      C1642   1.409       .  A
C1639      C1646   1.410       .  A
C1640      N1657   1.157       .  T
C1641      N1659   1.157       .  T
C1642      C1643   1.401       .  A
C1642      C1647   1.454       .  S
C1643      C1644   1.415       .  A
C1643      C1649   1.451       .  S
C1644      C1645   1.416       .  A
C1645      C1646   1.412       .  A
C1645      C1648   1.451       .  S
C1646      C1650   1.449       .  S
C1647      N1654   1.157       .  T
C1648      N1655   1.157       .  T
C1649      N1653   1.156       .  T
C1650      N1656   1.157       .  T
C1651      N1660   1.157       .  T
C1652      N1658   1.157       .  T
C1661      C1662   1.411       .  A
C1661      C1666   1.414       .  A
C1661      C1679   1.449       .  S
C1662      C1667   1.493       .  S
C1662      C1663   1.410       .  A
C1663      C1664   1.406       .  A
C1663      C1668   1.453       .  S
C1664      C1665   1.413       .  A
C1664      C1680   1.450       .  S
C1665      C1666   1.413       .  A
C1666      C1669   1.450       .  S
C1667      C1670   1.410       .  A
C1667      C1674   1.408       .  A
C1668      N1685   1.157       .  T
C1669      N1687   1.157       .  T
C1670      C1671   1.415       .  A
C1670      C1675   1.449       .  S
C1671      C1672   1.417       .  A
C1671      C1677   1.450       .  S
C1672      C1673   1.415       .  A
C1673      C1674   1.405       .  A
C1673      C1676   1.449       .  S
C1674      C1678   1.453       .  S
C1675      N1682   1.157       .  T
C1676      N1683   1.156       .  T
C1677      N1681   1.158       .  T
C1678      N1684   1.157       .  T
C1679      N1688   1.157       .  T
C1680      N1686   1.156       .  T
C1689      C1690   1.413       .  A
C1689      C1694   1.417       .  A
C1689      C1707   1.450       .  S
C1690      C1695   1.504       .  S
C1690      C1691   1.411       .  A
C1691      C1692   1.410       .  A
C1691      C1696   1.452       .  S
C1692      C1693   1.417       .  A
C1692      C1708   1.452       .  S
C1693      C1694   1.416       .  A
C1694      C1697   1.449       .  S
C1695      C1698   1.413       .  A
C1695      C1702   1.413       .  A
C1696      N1713   1.157       .  T
C1697      N1715   1.157       .  T
C1698      C1699   1.411       .  A
C1698      C1703   1.451       .  S
C1699      C1700   1.413       .  A
C1699      C1705   1.451       .  S
C1700      C1701   1.414       .  A
C1701      C1702   1.415       .  A
C1701      C1704   1.450       .  S
C1702      C1706   1.450       .  S
C1703      N1710   1.157       .  T
C1704      N1711   1.157       .  T
C1705      N1709   1.157       .  T
C1706      N1712   1.157       .  T
C1707      N1716   1.157       .  T
C1708      N1714   1.157       .  T
C1717      C1718   1.412       .  A
C1717      C1722   1.417       .  A
C1717      C1735   1.450       .  S
C1718      C1723   1.508       .  S
C1718      C1719   1.412       .  A
C1719      C1720   1.414       .  A
C1719      C1724   1.450       .  S
C1720      C1721   1.417       .  A
C1720      C1736   1.451       .  S
C1721      C1722   1.419       .  A
C1722      C1725   1.451       .  S
C1723      C1726   1.408       .  A
C1723      C1730   1.409       .  A
C1724      N1741   1.157       .  T
C1725      N1743   1.157       .  T
C1726      C1727   1.415       .  A
C1726      C1731   1.452       .  S
C1727      C1728   1.426       .  A
C1727      C1733   1.451       .  S
C1728      C1729   1.427       .  A
C1729      C1730   1.419       .  A
C1729      C1732   1.450       .  S
C1730      C1734   1.451       .  S
C1731      N1738   1.157       .  T
C1732      N1739   1.158       .  T
C1733      N1737   1.157       .  T
C1734      N1740   1.157       .  T
C1735      N1744   1.157       .  T
C1736      N1742   1.157       .  T
C1745      C1746   1.412   1_554  A
C1745      C1750   1.413       .  A
C1745      C1763   1.451       .  S
C1746      C1751   1.503       .  S
C1746      C1747   1.410       .  A
C1747      C1748   1.414       .  A
C1747      C1752   1.451       .  S
C1748      C1749   1.420       .  A
C1748      C1764   1.451       .  S
C1749      C1750   1.417   1_556  A
C1750      C1753   1.451       .  S
C1751      C1754   1.409   1_556  A
C1751      C1758   1.410       .  A
C1752      N1769   1.157       .  T
C1753      N1771   1.157       .  T
C1754      C1755   1.416       .  A
C1754      C1759   1.451       .  S
C1755      C1756   1.426       .  A
C1755      C1761   1.451       .  S
C1756      C1757   1.422   1_554  A
C1757      C1758   1.412       .  A
C1757      C1760   1.452       .  S
C1758      C1762   1.452       .  S
C1759      N1766   1.157       .  T
C1760      N1767   1.158       .  T
C1761      N1765   1.158       .  T
C1762      N1768   1.157       .  T
C1763      N1772   1.157       .  T
C1764      N1770   1.157       .  T
C1773      C1774   1.412       .  A
C1773      C1778   1.413       .  A
C1773      C1791   1.450       .  S
C1774      C1779   1.504       .  S
C1774      C1775   1.412       .  A
C1775      C1776   1.415       .  A
C1775      C1780   1.450       .  S
C1776      C1777   1.413       .  A
C1776      C1792   1.449       .  S
C1777      C1778   1.414       .  A
C1778      C1781   1.451       .  S
C1779      C1782   1.411       .  A
C1779      C1786   1.411       .  A
C1780      N1797   1.157       .  T
C1781      N1799   1.157       .  T
C1782      C1783   1.413       .  A
C1782      C1787   1.452       .  S
C1783      C1784   1.418       .  A
C1783      C1789   1.449       .  S
C1784      C1785   1.419       .  A
C1785      C1786   1.417       .  A
C1785      C1788   1.451       .  S
C1786      C1790   1.450       .  S
C1787      N1794   1.157       .  T
C1788      N1795   1.157       .  T
C1789      N1793   1.156       .  T
C1790      N1796   1.157       .  T
C1791      N1800   1.157       .  T
C1792      N1798   1.157       .  T
C1801      C1802   1.413       .  A
C1801      C1806   1.411       .  A
C1801      C1819   1.450       .  S
C1802      C1807   1.499       .  S
C1802      C1803   1.412       .  A
C1803      C1804   1.411       .  A
C1803      C1808   1.450       .  S
C1804      C1805   1.411       .  A
C1804      C1820   1.450       .  S
C1805      C1806   1.412       .  A
C1806      C1809   1.452       .  S
C1807      C1810   1.413       .  A
C1807      C1814   1.412       .  A
C1808      N1825   1.157       .  T
C1809      N1827   1.158       .  T
C1810      C1811   1.414       .  A
C1810      C1815   1.449       .  S
C1811      C1812   1.410       .  A
C1811      C1817   1.450       .  S
C1812      C1813   1.411       .  A
C1813      C1814   1.409       .  A
C1813      C1816   1.452       .  S
C1814      C1818   1.451       .  S
C1815      N1822   1.157       .  T
C1816      N1823   1.157       .  T
C1817      N1821   1.157       .  T
C1818      N1824   1.157       .  T
C1819      N1828   1.157       .  T
C1820      N1826   1.157       .  T
C1829      C1830   1.411       .  A
C1829      C1834   1.414       .  A
C1829      C1847   1.450       .  S
C1830      C1835   1.499       .  S
C1830      C1831   1.411       .  A
C1831      C1832   1.410       .  A
C1831      C1836   1.451       .  S
C1832      C1833   1.414       .  A
C1832      C1848   1.449       .  S
C1833      C1834   1.416       .  A
C1834      C1837   1.450       .  S
C1835      C1838   1.408       .  A
C1835      C1842   1.409       .  A
C1836      N1853   1.157       .  T
C1837      N1855   1.157       .  T
C1838      C1839   1.410       .  A
C1838      C1843   1.452       .  S
C1839      C1840   1.423       .  A
C1839      C1845   1.452       .  S
C1840      C1841   1.424       .  A
C1841      C1842   1.415       .  A
C1841      C1844   1.451       .  S
C1842      C1846   1.451       .  S
C1843      N1850   1.157       .  T
C1844      N1851   1.158       .  T
C1845      N1849   1.158       .  T
C1846      N1852   1.157       .  T
C1847      N1856   1.157       .  T
C1848      N1854   1.157       .  T
C1857      C1858   1.410       .  A
C1857      C1862   1.412       .  A
C1857      C1875   1.451       .  S
C1858      C1863   1.503       .  S
C1858      C1859   1.411       .  A
C1859      C1860   1.416       .  A
C1859      C1864   1.450       .  S
C1860      C1861   1.417       .  A
C1860      C1876   1.450       .  S
C1861      C1862   1.418       .  A
C1862      C1865   1.451       .  S
C1863      C1866   1.410       .  A
C1863      C1870   1.411       .  A
C1864      N1881   1.157   1_556  T
C1865      N1883   1.157       .  T
C1866      C1867   1.412       .  A
C1866      C1871   1.451       .  S
C1867      C1868   1.419       .  A
C1867      C1873   1.451       .  S
C1868      C1869   1.419       .  A
C1869      C1870   1.416       .  A
C1869      C1872   1.451       .  S
C1870      C1874   1.450       .  S
C1871      N1878   1.157       .  T
C1872      N1879   1.158       .  T
C1873      N1877   1.157       .  T
C1874      N1880   1.157       .  T
C1875      N1884   1.157       .  T
C1876      N1882   1.157       .  T
C1885      C1886   1.413       .  A
C1885      C1890   1.413       .  A
C1885      C1903   1.450       .  S
C1886      C1891   1.496       .  S
C1886      C1887   1.410       .  A
C1887      C1888   1.408       .  A
C1887      C1892   1.452       .  S
C1888      C1889   1.416       .  A
C1888      C1904   1.452       .  S
C1889      C1890   1.411       .  A
C1890      C1893   1.450       .  S
C1891      C1894   1.409       .  A
C1891      C1898   1.412       .  A
C1892      N1909   1.157       .  T
C1893      N1911   1.157       .  T
C1894      C1895   1.406       .  A
C1894      C1899   1.453       .  S
C1895      C1896   1.418       .  A
C1895      C1901   1.453       .  S
C1896      C1897   1.415       .  A
C1897      C1898   1.415       .  A
C1897      C1900   1.450       .  S
C1898      C1902   1.450       .  S
C1899      N1906   1.157       .  T
C1900      N1907   1.158       .  T
C1901      N1905   1.157       .  T
C1902      N1908   1.157       .  T
C1903      N1912   1.157       .  T
C1904      N1910   1.157       .  T
C1913      C1914   1.411       .  A
C1913      C1918   1.408       .  A
C1913      C1931   1.451       .  S
C1914      C1919   1.490       .  S
C1914      C1915   1.410       .  A
C1915      C1916   1.405       .  A
C1915      C1920   1.452       .  S
C1916      C1917   1.417       .  A
C1916      C1932   1.453       .  S
C1917      C1918   1.414       .  A
C1918      C1921   1.451       .  S
C1919      C1922   1.407       .  A
C1919      C1926   1.408       .  A
C1920      N1937   1.157       .  T
C1921      N1939   1.157       .  T
C1922      C1923   1.404       .  A
C1922      C1927   1.454       .  S
C1923      C1924   1.425       .  A
C1923      C1929   1.454       .  S
C1924      C1925   1.423       .  A
C1925      C1926   1.411       .  A
C1925      C1928   1.451       .  S
C1926      C1930   1.452       .  S
C1927      N1934   1.157       .  T
C1928      N1935   1.158       .  T
C1929      N1933   1.158       .  T
C1930      N1936   1.157       .  T
C1931      N1940   1.157       .  T
C1932      N1938   1.157       .  T
C1941      C1942   1.410       .  A
C1941      C1946   1.407       .  A
C1941      C1959   1.451       .  S
C1942      C1947   1.486       .  S
C1942      C1943   1.410       .  A
C1943      C1944   1.406       .  A
C1943      C1948   1.451       .  S
C1944      C1945   1.410       .  A
C1944      C1960   1.449       .  S
C1945      C1946   1.410       .  A
C1946      C1949   1.450       .  S
C1947      C1950   1.410       .  A
C1947      C1954   1.409       .  A
C1948      N1965   1.157       .  T
C1949      N1967   1.157   1_554  T
C1950      C1951   1.404       .  A
C1950      C1955   1.452       .  S
C1951      C1952   1.413       .  A
C1951      C1957   1.452       .  S
C1952      C1953   1.414       .  A
C1953      C1954   1.408       .  A
C1953      C1956   1.451       .  S
C1954      C1958   1.450       .  S
C1955      N1962   1.157       .  T
C1956      N1963   1.157       .  T
C1957      N1961   1.157       .  T
C1958      N1964   1.157       .  T
C1959      N1968   1.157       .  T
C1960      N1966   1.156       .  T
C1969      C1970   1.408       .  A
C1969      C1974   1.412       .  A
C1969      C1987   1.450       .  S
C1970      C1975   1.492       .  S
C1970      C1971   1.410       .  A
C1971      C1972   1.407       .  A
C1971      C1976   1.452       .  S
C1972      C1973   1.416       .  A
C1972      C1988   1.451       .  S
C1973      C1974   1.419       .  A
C1974      C1977   1.451       .  S
C1975      C1978   1.406       .  A
C1975      C1982   1.406       .  A
C1976      N1993   1.157       .  T
C1977      N1995   1.157       .  T
C1978      C1979   1.409       .  A
C1978      C1983   1.452       .  S
C1979      C1980   1.424       .  A
C1979      C1985   1.452       .  S
C1980      C1981   1.423       .  A
C1981      C1982   1.411       .  A
C1981      C1984   1.451       .  S
C1982      C1986   1.451       .  S
C1983      N1990   1.157       .  T
C1984      N1991   1.157       .  T
C1985      N1989   1.158       .  T
C1986      N1992   1.157       .  T
C1987      N1996   1.157       .  T
C1988      N1994   1.157       .  T
C1997      C1998   1.408       .  A
C1997      C2002   1.412       .  A
C1997      C2015   1.451       .  S
C1998      C2003   1.493       .  S
C1998      C1999   1.408       .  A
C1999      C2000   1.406       .  A
C1999      C2004   1.454       .  S
C2000      C2001   1.421       .  A
C2000      C2016   1.452       .  S
C2001      C2002   1.421       .  A
C2002      C2005   1.451       .  S
C2003      C2006   1.407   1_556  A
C2003      C2010   1.408   1_556  A
C2004      N2021   1.157   1_556  T
C2005      N2023   1.158       .  T
C2006      C2007   1.407       .  A
C2006      C2011   1.453       .  S
C2007      C2008   1.422       .  A
C2007      C2013   1.452       .  S
C2008      C2009   1.422       .  A
C2009      C2010   1.412       .  A
C2009      C2012   1.451       .  S
C2010      C2014   1.451   1_554  S
C2011      N2018   1.157   1_554  T
C2012      N2019   1.157       .  T
C2013      N2017   1.158       .  T
C2014      N2020   1.157       .  T
C2015      N2024   1.157       .  T
C2016      N2022   1.157       .  T
C2025      C2026   1.411       .  A
C2025      C2030   1.405       .  A
C2025      C2043   1.452       .  S
C2026      C2031   1.492       .  S
C2026      C2027   1.412       .  A
C2027      C2028   1.411       .  A
C2027      C2032   1.450       .  S
C2028      C2029   1.413       .  A
C2028      C2044   1.450       .  S
C2029      C2030   1.413       .  A
C2030      C2033   1.452       .  S
C2031      C2034   1.411       .  A
C2031      C2038   1.412       .  A
C2032      N2049   1.157       .  T
C2033      N2051   1.157       .  T
C2034      C2035   1.407       .  A
C2034      C2039   1.452       .  S
C2035      C2036   1.412       .  A
C2035      C2041   1.450       .  S
C2036      C2037   1.411       .  A
C2037      C2038   1.409       .  A
C2037      C2040   1.449       .  S
C2038      C2042   1.450       .  S
C2039      N2046   1.157       .  T
C2040      N2047   1.157       .  T
C2041      N2045   1.157       .  T
C2042      N2048   1.157       .  T
C2043      N2052   1.157       .  T
C2044      N2050   1.157       .  T
C2053      C2054   1.411       .  A
C2053      C2058   1.408       .  A
C2053      C2071   1.451       .  S
C2054      C2059   1.497       .  S
C2054      C2055   1.411       .  A
C2055      C2056   1.411       .  A
C2055      C2060   1.451       .  S
C2056      C2057   1.417       .  A
C2056      C2072   1.451       .  S
C2057      C2058   1.416       .  A
C2058      C2061   1.452       .  S
C2059      C2062   1.411       .  A
C2059      C2066   1.412       .  A
C2060      N2077   1.157       .  T
C2061      N2079   1.157       .  T
C2062      C2063   1.413       .  A
C2062      C2067   1.451       .  S
C2063      C2064   1.416       .  A
C2063      C2069   1.451       .  S
C2064      C2065   1.412       .  A
C2065      C2066   1.407       .  A
C2065      C2068   1.450       .  S
C2066      C2070   1.452       .  S
C2067      N2074   1.157       .  T
C2068      N2075   1.157       .  T
C2069      N2073   1.157       .  T
C2070      N2076   1.157       .  T
C2071      N2080   1.157       .  T
C2072      N2078   1.157       .  T
C2081      C2082   1.408       .  A
C2081      C2086   1.412   1_554  A
C2081      C2099   1.452       .  S
C2082      C2087   1.498       .  S
C2082      C2083   1.411       .  A
C2083      C2084   1.409       .  A
C2083      C2088   1.452       .  S
C2084      C2085   1.419       .  A
C2084      C2100   1.451       .  S
C2085      C2086   1.424   1_554  A
C2086      C2089   1.451       .  S
C2087      C2090   1.407       .  A
C2087      C2094   1.409       .  A
C2088      N2105   1.157       .  T
C2089      N2107   1.158       .  T
C2090      C2091   1.413       .  A
C2090      C2095   1.451       .  S
C2091      C2092   1.426       .  A
C2091      C2097   1.451       .  S
C2092      C2093   1.425       .  A
C2093      C2094   1.409       .  A
C2093      C2096   1.454       .  S
C2094      C2098   1.452       .  S
C2095      N2102   1.157       .  T
C2096      N2103   1.158       .  T
C2097      N2101   1.158       .  T
C2098      N2104   1.157       .  T
C2099      N2108   1.157       .  T
C2100      N2106   1.157       .  T
C2109      C2110   1.406       .  A
C2109      C2114   1.410       .  A
C2109      C2127   1.452       .  S
C2110      C2115   1.489       .  S
C2110      C2111   1.405       .  A
C2111      C2112   1.407       .  A
C2111      C2116   1.454       .  S
C2112      C2113   1.427       .  A
C2112      C2128   1.453       .  S
C2113      C2114   1.424       .  A
C2114      C2117   1.451       .  S
C2115      C2118   1.408       .  A
C2115      C2122   1.409       .  A
C2116      N2133   1.157       .  T
C2117      N2135   1.158       .  T
C2118      C2119   1.403       .  A
C2118      C2123   1.453       .  S
C2119      C2120   1.419       .  A
C2119      C2125   1.453       .  S
C2120      C2121   1.417       .  A
C2121      C2122   1.411       .  A
C2121      C2124   1.451       .  S
C2122      C2126   1.450       .  S
C2123      N2130   1.157       .  T
C2124      N2131   1.158       .  T
C2125      N2129   1.157       .  T
C2126      N2132   1.157       .  T
C2127      N2136   1.157       .  T
C2128      N2134   1.158       .  T
C2137      C2138   1.410   1_556  A
C2137      C2142   1.403       .  A
C2137      C2155   1.452   1_556  S
C2138      C2143   1.485       .  S
C2138      C2139   1.410   1_554  A
C2139      C2140   1.409       .  A
C2139      C2144   1.449   1_556  S
C2140      C2141   1.410       .  A
C2140      C2156   1.451       .  S
C2141      C2142   1.411       .  A
C2142      C2145   1.451       .  S
C2143      C2146   1.410       .  A
C2143      C2150   1.410       .  A
C2144      N2161   1.157       .  T
C2145      N2163   1.157       .  T
C2146      C2147   1.408       .  A
C2146      C2151   1.451       .  S
C2147      C2148   1.410       .  A
C2147      C2153   1.450       .  S
C2148      C2149   1.410       .  A
C2149      C2150   1.405       .  A
C2149      C2152   1.452       .  S
C2150      C2154   1.451       .  S
C2151      N2158   1.157       .  T
C2152      N2159   1.157       .  T
C2153      N2157   1.157       .  T
C2154      N2160   1.157       .  T
C2155      N2164   1.157       .  T
C2156      N2162   1.157       .  T
C2165      C2166   1.409       .  A
C2165      C2170   1.412       .  A
C2165      C2183   1.452       .  S
C2166      C2171   1.501   1_655  S
C2166      C2167   1.410       .  A
C2167      C2168   1.414       .  A
C2167      C2172   1.450       .  S
C2168      C2169   1.420       .  A
C2168      C2184   1.451       .  S
C2169      C2170   1.420       .  A
C2170      C2173   1.451       .  S
C2171      C2174   1.410       .  A
C2171      C2178   1.412       .  A
C2172      N2189   1.157       .  T
C2173      N2191   1.157       .  T
C2174      C2175   1.410       .  A
C2174      C2179   1.452   1_455  S
C2175      C2176   1.416       .  A
C2175      C2181   1.449       .  S
C2176      C2177   1.415       .  A
C2177      C2178   1.415       .  A
C2177      C2180   1.450       .  S
C2178      C2182   1.449       .  S
C2179      N2186   1.157       .  T
C2180      N2187   1.158       .  T
C2181      N2185   1.156       .  T
C2182      N2188   1.157       .  T
C2183      N2192   1.157       .  T
C2184      N2190   1.158       .  T
C2193      C2194   1.409       .  A
C2193      C2198   1.409       .  A
C2193      C2211   1.452       .  S
C2194      C2199   1.499       .  S
C2194      C2195   1.411       .  A
C2195      C2196   1.416       .  A
C2195      C2200   1.449       .  S
C2196      C2197   1.417       .  A
C2196      C2212   1.450       .  S
C2197      C2198   1.421       .  A
C2198      C2201   1.453       .  S
C2199      C2202   1.413       .  A
C2199      C2206   1.410       .  A
C2200      N2217   1.157       .  T
C2201      N2219   1.158       .  T
C2202      C2203   1.414       .  A
C2202      C2207   1.449       .  S
C2203      C2204   1.412       .  A
C2203      C2209   1.450       .  S
C2204      C2205   1.416       .  A
C2205      C2206   1.410       .  A
C2205      C2208   1.452       .  S
C2206      C2210   1.452       .  S
C2207      N2214   1.157       .  T
C2208      N2215   1.157       .  T
C2209      N2213   1.157       .  T
C2210      N2216   1.157       .  T
C2211      N2220   1.157       .  T
C2212      N2218   1.157       .  T
C2221      C2222   1.409       .  A
C2221      C2226   1.410       .  A
C2221      C2239   1.452       .  S
C2222      C2227   1.499   1_455  S
C2222      C2223   1.409       .  A
C2223      C2224   1.414       .  A
C2223      C2228   1.450   1_455  S
C2224      C2225   1.420       .  A
C2224      C2240   1.450       .  S
C2225      C2226   1.421       .  A
C2226      C2229   1.452       .  S
C2227      C2230   1.409       .  A
C2227      C2234   1.410       .  A
C2228      N2245   1.157       .  T
C2229      N2247   1.157       .  T
C2230      C2231   1.409       .  A
C2230      C2235   1.453       .  S
C2231      C2232   1.421       .  A
C2231      C2237   1.452       .  S
C2232      C2233   1.420       .  A
C2233      C2234   1.416       .  A
C2233      C2236   1.450       .  S
C2234      C2238   1.450   1_655  S
C2235      N2242   1.157       .  T
C2236      N2243   1.157       .  T
C2237      N2241   1.157       .  T
C2238      N2244   1.157       .  T
C2239      N2248   1.157       .  T
C2240      N2246   1.157       .  T
C2249      C2250   1.410       .  A
C2249      C2254   1.411   1_655  A
C2249      C2267   1.452       .  S
C2250      C2255   1.501       .  S
C2250      C2251   1.410       .  A
C2251      C2252   1.414   1_655  A
C2251      C2256   1.451       .  S
C2252      C2253   1.420       .  A
C2252      C2268   1.451       .  S
C2253      C2254   1.421       .  A
C2254      C2257   1.452       .  S
C2255      C2258   1.410       .  A
C2255      C2262   1.410       .  A
C2256      N2273   1.157       .  T
C2257      N2275   1.157       .  T
C2258      C2259   1.411       .  A
C2258      C2263   1.452       .  S
C2259      C2260   1.421       .  A
C2259      C2265   1.452       .  S
C2260      C2261   1.419       .  A
C2261      C2262   1.413       .  A
C2261      C2264   1.451       .  S
C2262      C2266   1.451       .  S
C2263      N2270   1.157       .  T
C2264      N2271   1.157       .  T
C2265      N2269   1.157       .  T
C2266      N2272   1.157       .  T
C2267      N2276   1.157       .  T
C2268      N2274   1.157       .  T
C2277      C2278   1.411       .  A
C2277      C2282   1.411       .  A
C2277      C2295   1.452       .  S
C2278      C2283   1.500       .  S
C2278      C2279   1.410       .  A
C2279      C2280   1.413       .  A
C2279      C2284   1.451       .  S
C2280      C2281   1.420       .  A
C2280      C2296   1.451       .  S
C2281      C2282   1.418       .  A
C2282      C2285   1.451       .  S
C2283      C2286   1.412       .  A
C2283      C2290   1.413       .  A
C2284      N2301   1.157       .  T
C2285      N2303   1.157       .  T
C2286      C2287   1.410       .  A
C2286      C2291   1.451       .  S
C2287      C2288   1.412       .  A
C2287      C2293   1.451       .  S
C2288      C2289   1.412       .  A
C2289      C2290   1.412       .  A
C2289      C2292   1.450       .  S
C2290      C2294   1.450       .  S
C2291      N2298   1.157       .  T
C2292      N2299   1.157       .  T
C2293      N2297   1.157       .  T
C2294      N2300   1.157       .  T
C2295      N2304   1.157       .  T
C2296      N2302   1.157       .  T
C2305      C2306   1.411       .  A
C2305      C2310   1.412       .  A
C2305      C2323   1.451       .  S
C2306      C2311   1.500       .  S
C2306      C2307   1.410       .  A
C2307      C2308   1.414       .  A
C2307      C2312   1.450       .  S
C2308      C2309   1.418       .  A
C2308      C2324   1.451       .  S
C2309      C2310   1.414       .  A
C2310      C2313   1.450       .  S
C2311      C2314   1.408       .  A
C2311      C2318   1.409       .  A
C2312      N2329   1.157       .  T
C2313      N2331   1.157       .  T
C2314      C2315   1.409       .  A
C2314      C2319   1.452       .  S
C2315      C2316   1.422       .  A
C2315      C2321   1.452       .  S
C2316      C2317   1.421       .  A
C2317      C2318   1.417       .  A
C2317      C2320   1.450       .  S
C2318      C2322   1.450       .  S
C2319      N2326   1.157       .  T
C2320      N2327   1.158       .  T
C2321      N2325   1.157       .  T
C2322      N2328   1.157       .  T
C2323      N2332   1.157       .  T
C2324      N2330   1.157       .  T
C2333      C2334   1.408       .  A
C2333      C2338   1.415       .  A
C2333      C2351   1.451       .  S
C2334      C2339   1.495       .  S
C2334      C2335   1.406       .  A
C2335      C2336   1.406       .  A
C2335      C2340   1.452       .  S
C2336      C2337   1.428       .  A
C2336      C2352   1.456       .  S
C2337      C2338   1.424       .  A
C2338      C2341   1.450       .  S
C2339      C2342   1.409       .  A
C2339      C2346   1.408       .  A
C2340      N2357   1.156       .  T
C2341      N2359   1.158       .  T
C2342      C2343   1.412       .  A
C2342      C2347   1.451       .  S
C2343      C2344   1.421       .  A
C2343      C2349   1.451       .  S
C2344      C2345   1.418       .  A
C2345      C2346   1.409       .  A
C2345      C2348   1.450       .  S
C2346      C2350   1.452       .  S
C2347      N2354   1.157       .  T
C2348      N2355   1.157       .  T
C2349      N2353   1.158       .  T
C2350      N2356   1.157       .  T
C2351      N2360   1.157       .  T
C2352      N2358   1.158       .  T
C2361      C2362   1.413       .  A
C2361      C2366   1.413       .  A
C2361      C2379   1.450       .  S
C2362      C2367   1.498       .  S
C2362      C2363   1.411       .  A
C2363      C2364   1.408       .  A
C2363      C2368   1.452       .  S
C2364      C2365   1.415       .  A
C2364      C2380   1.453       .  S
C2365      C2366   1.414       .  A
C2366      C2369   1.451       .  S
C2367      C2370   1.410       .  A
C2367      C2374   1.414       .  A
C2368      N2385   1.157       .  T
C2369      N2387   1.157       .  T
C2370      C2371   1.408       .  A
C2370      C2375   1.452       .  S
C2371      C2372   1.415       .  A
C2371      C2377   1.449       .  S
C2372      C2373   1.410       .  A
C2373      C2374   1.414       .  A
C2373      C2376   1.449       .  S
C2374      C2378   1.449       .  S
C2375      N2382   1.157       .  T
C2376      N2383   1.157       .  T
C2377      N2381   1.156       .  T
C2378      N2384   1.157       .  T
C2379      N2388   1.157       .  T
C2380      N2386   1.157       .  T
C2389      C2390   1.414       .  A
C2389      C2394   1.411       .  A
C2389      C2407   1.451       .  S
C2390      C2395   1.504       .  S
C2390      C2391   1.413       .  A
C2391      C2392   1.412       .  A
C2391      C2396   1.451       .  S
C2392      C2393   1.417       .  A
C2392      C2408   1.450       .  S
C2393      C2394   1.412       .  A
C2394      C2397   1.449       .  S
C2395      C2398   1.411       .  A
C2395      C2402   1.411       .  A
C2396      N2413   1.157       .  T
C2397      N2415   1.157       .  T
C2398      C2399   1.416       .  A
C2398      C2403   1.451       .  S
C2399      C2400   1.423       .  A
C2399      C2405   1.450       .  S
C2400      C2401   1.424       .  A
C2401      C2402   1.410       .  A
C2401      C2404   1.453       .  S
C2402      C2406   1.453       .  S
C2403      N2410   1.157       .  T
C2404      N2411   1.158       .  T
C2405      N2409   1.157       .  T
C2406      N2412   1.157       .  T
C2407      N2416   1.157       .  T
C2408      N2414   1.157       .  T
C2417      C2418   1.409       .  A
C2417      C2422   1.409       .  A
C2417      C2435   1.452       .  S
C2418      C2423   1.494       .  S
C2418      C2419   1.409       .  A
C2419      C2420   1.411       .  A
C2419      C2424   1.450       .  S
C2420      C2421   1.416       .  A
C2420      C2436   1.449       .  S
C2421      C2422   1.416       .  A
C2422      C2425   1.450       .  S
C2423      C2426   1.411       .  A
C2423      C2430   1.409       .  A
C2424      N2441   1.157       .  T
C2425      N2443   1.157       .  T
C2426      C2427   1.412       .  A
C2426      C2431   1.450       .  S
C2427      C2428   1.413       .  A
C2427      C2433   1.450       .  S
C2428      C2429   1.415       .  A
C2429      C2430   1.408       .  A
C2429      C2432   1.451       .  S
C2430      C2434   1.452       .  S
C2431      N2438   1.157       .  T
C2432      N2439   1.157       .  T
C2433      N2437   1.157       .  T
C2434      N2440   1.157       .  T
C2435      N2444   1.157       .  T
C2436      N2442   1.156       .  T
C2445      C2446   1.407       .  A
C2445      C2450   1.415       .  A
C2445      C2463   1.451       .  S
C2446      C2451   1.499       .  S
C2446      C2447   1.407       .  A
C2447      C2448   1.411       .  A
C2447      C2452   1.453       .  S
C2448      C2449   1.427       .  A
C2448      C2464   1.452       .  S
C2449      C2450   1.425       .  A
C2450      C2453   1.450       .  S
C2451      C2454   1.407       .  A
C2451      C2458   1.408       .  A
C2452      N2469   1.157       .  T
C2453      N2471   1.158   1_556  T
C2454      C2455   1.411       .  A
C2454      C2459   1.453       .  S
C2455      C2456   1.425       .  A
C2455      C2461   1.451       .  S
C2456      C2457   1.422       .  A
C2457      C2458   1.414       .  A
C2457      C2460   1.451       .  S
C2458      C2462   1.450       .  S
C2459      N2466   1.157       .  T
C2460      N2467   1.157       .  T
C2461      N2465   1.157       .  T
C2462      N2468   1.157       .  T
C2463      N2472   1.157       .  T
C2464      N2470   1.158       .  T
C2473      C2474   1.411       .  A
C2473      C2478   1.411   1_455  A
C2473      C2491   1.452       .  S
C2474      C2479   1.499       .  S
C2474      C2475   1.410   1_554  A
C2475      C2476   1.411   1_455  A
C2475      C2480   1.452       .  S
C2476      C2477   1.420       .  A
C2476      C2492   1.451       .  S
C2477      C2478   1.420   1_556  A
C2478      C2481   1.452       .  S
C2479      C2482   1.411   1_554  A
C2479      C2486   1.410       .  A
C2480      N2497   1.157       .  T
C2481      N2499   1.158       .  T
C2482      C2483   1.409   1_556  A
C2482      C2487   1.452       .  S
C2483      C2484   1.418       .  A
C2483      C2489   1.452   1_554  S
C2484      C2485   1.419       .  A
C2485      C2486   1.412       .  A
C2485      C2488   1.451       .  S
C2486      C2490   1.451       .  S
C2487      N2494   1.157       .  T
C2488      N2495   1.157       .  T
C2489      N2493   1.157       .  T
C2490      N2496   1.157       .  T
C2491      N2500   1.157       .  T
C2492      N2498   1.157       .  T
C2501      C2502   1.411       .  A
C2501      C2506   1.412       .  A
C2501      C2519   1.451       .  S
C2502      C2507   1.502       .  S
C2502      C2503   1.413       .  A
C2503      C2504   1.411       .  A
C2503      C2508   1.451       .  S
C2504      C2505   1.414       .  A
C2504      C2520   1.450       .  S
C2505      C2506   1.419       .  A
C2506      C2509   1.451       .  S
C2507      C2510   1.411       .  A
C2507      C2514   1.411       .  A
C2508      N2525   1.157   1_554  T
C2509      N2527   1.157       .  T
C2510      C2511   1.413       .  A
C2510      C2515   1.451       .  S
C2511      C2512   1.420       .  A
C2511      C2517   1.451       .  S
C2512      C2513   1.420       .  A
C2513      C2514   1.411       .  A
C2513      C2516   1.453       .  S
C2514      C2518   1.452       .  S
C2515      N2522   1.157       .  T
C2516      N2523   1.158       .  T
C2517      N2521   1.158   1_554  T
C2518      N2524   1.157       .  T
C2519      N2528   1.157       .  T
C2520      N2526   1.157   1_554  T
C2529      C2530   1.414       .  A
C2529      C2534   1.410       .  A
C2529      C2547   1.450       .  S
C2530      C2535   1.502       .  S
C2530      C2531   1.415       .  A
C2531      C2532   1.412       .  A
C2531      C2536   1.450       .  S
C2532      C2533   1.410       .  A
C2532      C2548   1.451       .  S
C2533      C2534   1.410       .  A
C2534      C2537   1.452       .  S
C2535      C2538   1.415       .  A
C2535      C2542   1.413       .  A
C2536      N2553   1.157       .  T
C2537      N2555   1.157       .  T
C2538      C2539   1.414       .  A
C2538      C2543   1.450       .  S
C2539      C2540   1.410       .  A
C2539      C2545   1.450       .  S
C2540      C2541   1.412       .  A
C2541      C2542   1.409       .  A
C2541      C2544   1.452       .  S
C2542      C2546   1.451       .  S
C2543      N2550   1.157       .  T
C2544      N2551   1.157       .  T
C2545      N2549   1.157       .  T
C2546      N2552   1.157       .  T
C2547      N2556   1.157       .  T
C2548      N2554   1.157       .  T
C2557      C2558   1.411       .  A
C2557      C2562   1.410       .  A
C2557      C2575   1.451       .  S
C2558      C2563   1.496       .  S
C2558      C2559   1.410       .  A
C2559      C2560   1.412       .  A
C2559      C2564   1.450       .  S
C2560      C2561   1.416       .  A
C2560      C2576   1.451       .  S
C2561      C2562   1.416       .  A
C2562      C2565   1.451       .  S
C2563      C2566   1.411       .  A
C2563      C2570   1.410       .  A
C2564      N2581   1.157       .  T
C2565      N2583   1.157       .  T
C2566      C2567   1.411       .  A
C2566      C2571   1.451       .  S
C2567      C2568   1.414       .  A
C2567      C2573   1.451       .  S
C2568      C2569   1.413       .  A
C2569      C2570   1.411       .  A
C2569      C2572   1.450       .  S
C2570      C2574   1.450       .  S
C2571      N2578   1.157       .  T
C2572      N2579   1.157       .  T
C2573      N2577   1.157       .  T
C2574      N2580   1.157       .  T
C2575      N2584   1.157       .  T
C2576      N2582   1.157       .  T
C2585      C2586   1.412       .  A
C2585      C2590   1.414       .  A
C2585      C2603   1.449       .  S
C2586      C2591   1.497       .  S
C2586      C2587   1.410       .  A
C2587      C2588   1.409       .  A
C2587      C2592   1.451       .  S
C2588      C2589   1.414       .  A
C2588      C2604   1.450       .  S
C2589      C2590   1.414       .  A
C2590      C2593   1.450       .  S
C2591      C2594   1.412       .  A
C2591      C2598   1.408       .  A
C2592      N2609   1.157       .  T
C2593      N2611   1.157       .  T
C2594      C2595   1.417       .  A
C2594      C2599   1.449       .  S
C2595      C2596   1.415       .  A
C2595      C2601   1.450       .  S
C2596      C2597   1.414       .  A
C2597      C2598   1.406       .  A
C2597      C2600   1.447       .  S
C2598      C2602   1.453       .  S
C2599      N2606   1.157       .  T
C2600      N2607   1.155       .  T
C2601      N2605   1.158       .  T
C2602      N2608   1.157       .  T
C2603      N2612   1.157       .  T
C2604      N2610   1.157       .  T
C2613      C2614   1.410       .  A
C2613      C2618   1.415       .  A
C2613      C2631   1.449       .  S
C2614      C2619   1.497   1_565  S
C2614      C2615   1.410   1_565  A
C2615      C2616   1.407   1_545  A
C2615      C2620   1.453       .  S
C2616      C2617   1.417       .  A
C2616      C2632   1.451       .  S
C2617      C2618   1.418       .  A
C2618      C2621   1.450       .  S
C2619      C2622   1.412       .  A
C2619      C2626   1.409       .  A
C2620      N2637   1.157       .  T
C2621      N2639   1.157       .  T
C2622      C2623   1.416       .  A
C2622      C2627   1.448       .  S
C2623      C2624   1.415       .  A
C2623      C2629   1.449       .  S
C2624      C2625   1.413       .  A
C2625      C2626   1.405       .  A
C2625      C2628   1.447       .  S
C2626      C2630   1.453   1_545  S
C2627      N2634   1.157       .  T
C2628      N2635   1.155       .  T
C2629      N2633   1.157       .  T
C2630      N2636   1.157       .  T
C2631      N2640   1.157       .  T
C2632      N2638   1.157       .  T
C2641      C2642   1.414       .  A
C2641      C2646   1.412       .  A
C2641      C2659   1.451       .  S
C2642      C2647   1.505       .  S
C2642      C2643   1.413       .  A
C2643      C2644   1.413       .  A
C2643      C2648   1.451       .  S
C2644      C2645   1.415       .  A
C2644      C2660   1.451       .  S
C2645      C2646   1.414       .  A
C2646      C2649   1.452       .  S
C2647      C2650   1.411       .  A
C2647      C2654   1.411       .  A
C2648      N2665   1.157       .  T
C2649      N2667   1.158       .  T
C2650      C2651   1.411       .  A
C2650      C2655   1.452       .  S
C2651      C2652   1.422       .  A
C2651      C2657   1.452       .  S
C2652      C2653   1.422       .  A
C2653      C2654   1.415       .  A
C2653      C2656   1.451       .  S
C2654      C2658   1.451       .  S
C2655      N2662   1.157       .  T
C2656      N2663   1.157       .  T
C2657      N2661   1.157       .  T
C2658      N2664   1.157       .  T
C2659      N2668   1.157       .  T
C2660      N2666   1.157       .  T
C2669      C2670   1.408       .  A
C2669      C2674   1.415   1_565  A
C2669      C2687   1.451       .  S
C2670      C2675   1.503       .  S
C2670      C2671   1.410       .  A
C2671      C2672   1.413   1_565  A
C2671      C2676   1.452       .  S
C2672      C2673   1.422       .  A
C2672      C2688   1.452       .  S
C2673      C2674   1.425       .  A
C2674      C2677   1.451       .  S
C2675      C2678   1.412       .  A
C2675      C2682   1.410       .  A
C2676      N2693   1.157       .  T
C2677      N2695   1.158       .  T
C2678      C2679   1.413       .  A
C2678      C2683   1.451       .  S
C2679      C2680   1.418       .  A
C2679      C2685   1.452       .  S
C2680      C2681   1.420       .  A
C2681      C2682   1.413       .  A
C2681      C2684   1.451       .  S
C2682      C2686   1.451       .  S
C2683      N2690   1.157       .  T
C2684      N2691   1.157       .  T
C2685      N2689   1.157       .  T
C2686      N2692   1.157       .  T
C2687      N2696   1.157       .  T
C2688      N2694   1.158       .  T
C2697      C2698   1.410       .  A
C2697      C2702   1.410       .  A
C2697      C2715   1.452       .  S
C2698      C2703   1.498       .  S
C2698      C2699   1.409       .  A
C2699      C2700   1.414       .  A
C2699      C2704   1.450       .  S
C2700      C2701   1.419       .  A
C2700      C2716   1.451       .  S
C2701      C2702   1.417       .  A
C2702      C2705   1.452       .  S
C2703      C2706   1.409       .  A
C2703      C2710   1.407       .  A
C2704      N2721   1.157       .  T
C2705      N2723   1.157       .  T
C2706      C2707   1.412       .  A
C2706      C2711   1.451       .  S
C2707      C2708   1.420       .  A
C2707      C2713   1.451       .  S
C2708      C2709   1.425       .  A
C2709      C2710   1.413       .  A
C2709      C2712   1.451       .  S
C2710      C2714   1.451       .  S
C2711      N2718   1.157       .  T
C2712      N2719   1.158       .  T
C2713      N2717   1.157       .  T
C2714      N2720   1.157       .  T
C2715      N2724   1.157       .  T
C2716      N2722   1.157       .  T
C2725      C2726   1.408       .  A
C2725      C2730   1.409       .  A
C2725      C2743   1.451       .  S
C2726      C2731   1.488       .  S
C2726      C2727   1.407       .  A
C2727      C2728   1.406       .  A
C2727      C2732   1.451       .  S
C2728      C2729   1.417       .  A
C2728      C2744   1.452       .  S
C2729      C2730   1.419       .  A
C2730      C2733   1.450       .  S
C2731      C2734   1.406       .  A
C2731      C2738   1.406       .  A
C2732      N2749   1.157       .  T
C2733      N2751   1.158       .  T
C2734      C2735   1.412       .  A
C2734      C2739   1.451       .  S
C2735      C2736   1.424       .  A
C2735      C2741   1.451       .  S
C2736      C2737   1.423       .  A
C2737      C2738   1.405       .  A
C2737      C2740   1.453       .  S
C2738      C2742   1.454       .  S
C2739      N2746   1.157       .  T
C2740      N2747   1.158       .  T
C2741      N2745   1.158       .  T
C2742      N2748   1.157       .  T
C2743      N2752   1.157       .  T
C2744      N2750   1.157       .  T
C2753      C2754   1.412       .  A
C2753      C2758   1.409       .  A
C2753      C2771   1.451       .  S
C2754      C2759   1.494       .  S
C2754      C2755   1.410       .  A
C2755      C2756   1.408       .  A
C2755      C2760   1.451       .  S
C2756      C2757   1.413       .  A
C2756      C2772   1.451       .  S
C2757      C2758   1.412       .  A
C2758      C2761   1.450       .  S
C2759      C2762   1.409   1_556  A
C2759      C2766   1.408   1_556  A
C2760      N2777   1.157       .  T
C2761      N2779   1.157       .  T
C2762      C2763   1.408       .  A
C2762      C2767   1.453       .  S
C2763      C2764   1.421       .  A
C2763      C2769   1.451       .  S
C2764      C2765   1.422       .  A
C2765      C2766   1.411       .  A
C2765      C2768   1.451       .  S
C2766      C2770   1.451   1_554  S
C2767      N2774   1.157   1_554  T
C2768      N2775   1.157       .  T
C2769      N2773   1.158       .  T
C2770      N2776   1.157       .  T
C2771      N2780   1.157       .  T
C2772      N2778   1.157       .  T
C2781      C2782   1.411       .  A
C2781      C2786   1.414       .  A
C2781      C2799   1.450       .  S
C2782      C2787   1.494       .  S
C2782      C2783   1.410       .  A
C2783      C2784   1.403       .  A
C2783      C2788   1.454       .  S
C2784      C2785   1.419   1_556  A
C2784      C2800   1.453   1_556  S
C2785      C2786   1.417   1_554  A
C2786      C2789   1.451       .  S
C2787      C2790   1.412       .  A
C2787      C2794   1.410       .  A
C2788      N2805   1.157       .  T
C2789      N2807   1.158   1_556  T
C2790      C2791   1.408       .  A
C2790      C2795   1.451       .  S
C2791      C2792   1.411       .  A
C2791      C2797   1.449       .  S
C2792      C2793   1.418       .  A
C2793      C2794   1.409       .  A
C2793      C2796   1.452       .  S
C2794      C2798   1.451       .  S
C2795      N2802   1.157       .  T
C2796      N2803   1.158       .  T
C2797      N2801   1.157       .  T
C2798      N2804   1.157       .  T
C2799      N2808   1.157       .  T
C2800      N2806   1.157       .  T
C2809      C2810   1.408       .  A
C2809      C2814   1.410       .  A
C2809      C2827   1.453       .  S
C2810      C2815   1.494       .  S
C2810      C2811   1.408       .  A
C2811      C2812   1.412       .  A
C2811      C2816   1.451       .  S
C2812      C2813   1.421       .  A
C2812      C2828   1.451       .  S
C2813      C2814   1.422       .  A
C2814      C2817   1.451       .  S
C2815      C2818   1.407       .  A
C2815      C2822   1.411       .  A
C2816      N2833   1.157       .  T
C2817      N2835   1.158       .  T
C2818      C2819   1.408       .  A
C2818      C2823   1.452       .  S
C2819      C2820   1.420       .  A
C2819      C2825   1.452       .  S
C2820      C2821   1.413       .  A
C2821      C2822   1.413       .  A
C2821      C2824   1.449       .  S
C2822      C2826   1.449       .  S
C2823      N2830   1.157       .  T
C2824      N2831   1.157       .  T
C2825      N2829   1.158       .  T
C2826      N2832   1.157       .  T
C2827      N2836   1.157       .  T
C2828      N2834   1.157       .  T
C2837      C2838   1.410       .  A
C2837      C2842   1.407       .  A
C2837      C2855   1.453       .  S
C2838      C2843   1.499       .  S
C2838      C2839   1.413       .  A
C2839      C2840   1.417       .  A
C2839      C2844   1.449       .  S
C2840      C2841   1.414       .  A
C2840      C2856   1.450       .  S
C2841      C2842   1.418       .  A
C2842      C2845   1.453       .  S
C2843      C2846   1.413       .  A
C2843      C2850   1.410       .  A
C2844      N2861   1.157       .  T
C2845      N2863   1.158       .  T
C2846      C2847   1.417       .  A
C2846      C2851   1.448       .  S
C2847      C2848   1.411       .  A
C2847      C2853   1.449       .  S
C2848      C2849   1.414       .  A
C2849      C2850   1.408       .  A
C2849      C2852   1.450       .  S
C2850      C2854   1.453       .  S
C2851      N2858   1.157       .  T
C2852      N2859   1.157       .  T
C2853      N2857   1.157       .  T
C2854      N2860   1.157       .  T
C2855      N2864   1.157       .  T
C2856      N2862   1.157       .  T
C2865      C2866   1.410       .  A
C2865      C2870   1.414       .  A
C2865      C2883   1.451       .  S
C2866      C2871   1.499   1_545  S
C2866      C2867   1.408       .  A
C2867      C2868   1.409       .  A
C2867      C2872   1.453       .  S
C2868      C2869   1.423       .  A
C2868      C2884   1.451       .  S
C2869      C2870   1.421       .  A
C2870      C2873   1.451       .  S
C2871      C2874   1.409       .  A
C2871      C2878   1.410       .  A
C2872      N2889   1.157       .  T
C2873      N2891   1.157       .  T
C2874      C2875   1.413       .  A
C2874      C2879   1.451       .  S
C2875      C2876   1.421       .  A
C2875      C2881   1.451       .  S
C2876      C2877   1.422       .  A
C2877      C2878   1.409       .  A
C2877      C2880   1.452       .  S
C2878      C2882   1.453       .  S
C2879      N2886   1.157       .  T
C2880      N2887   1.158       .  T
C2881      N2885   1.157       .  T
C2882      N2888   1.157   1_565  T
C2883      N2892   1.157       .  T
C2884      N2890   1.157       .  T
C2893      C2894   1.407       .  A
C2893      C2898   1.404       .  A
C2893      C2911   1.454       .  S
C2894      C2899   1.483       .  S
C2894      C2895   1.405       .  A
C2895      C2896   1.407       .  A
C2895      C2900   1.451       .  S
C2896      C2897   1.421       .  A
C2896      C2912   1.452       .  S
C2897      C2898   1.421       .  A
C2898      C2901   1.453       .  S
C2899      C2902   1.408   1_554  A
C2899      C2906   1.409   1_554  A
C2900      N2917   1.157       .  T
C2901      N2919   1.158       .  T
C2902      C2903   1.406       .  A
C2902      C2907   1.451       .  S
C2903      C2904   1.413       .  A
C2903      C2909   1.452       .  S
C2904      C2905   1.413       .  A
C2905      C2906   1.404       .  A
C2905      C2908   1.451       .  S
C2906      C2910   1.452   1_556  S
C2907      N2914   1.157   1_556  T
C2908      N2915   1.157       .  T
C2909      N2913   1.157       .  T
C2910      N2916   1.157       .  T
C2911      N2920   1.157   1_554  T
C2912      N2918   1.157       .  T
C2921      C2922   1.410       .  A
C2921      C2926   1.407       .  A
C2921      C2939   1.451       .  S
C2922      C2927   1.486       .  S
C2922      C2923   1.410       .  A
C2923      C2924   1.406       .  A
C2923      C2928   1.451       .  S
C2924      C2925   1.411       .  A
C2924      C2940   1.452       .  S
C2925      C2926   1.410       .  A
C2926      C2929   1.450       .  S
C2927      C2930   1.407       .  A
C2927      C2934   1.407       .  A
C2928      N2945   1.157       .  T
C2929      N2947   1.157       .  T
C2930      C2931   1.409       .  A
C2930      C2935   1.451       .  S
C2931      C2932   1.419       .  A
C2931      C2937   1.450       .  S
C2932      C2933   1.420       .  A
C2933      C2934   1.405       .  A
C2933      C2936   1.451       .  S
C2934      C2938   1.453       .  S
C2935      N2942   1.157       .  T
C2936      N2943   1.156       .  T
C2937      N2941   1.157       .  T
C2938      N2944   1.157       .  T
C2939      N2948   1.157       .  T
C2940      N2946   1.158       .  T
C2949      C2950   1.408       .  A
C2949      C2954   1.410       .  A
C2949      C2967   1.451       .  S
C2950      C2955   1.490       .  S
C2950      C2951   1.409       .  A
C2951      C2952   1.407       .  A
C2951      C2956   1.452       .  S
C2952      C2953   1.416       .  A
C2952      C2968   1.451       .  S
C2953      C2954   1.419       .  A
C2954      C2957   1.451       .  S
C2955      C2958   1.408       .  A
C2955      C2962   1.410       .  A
C2956      N2973   1.157       .  T
C2957      N2975   1.158       .  T
C2958      C2959   1.402       .  A
C2958      C2963   1.453       .  S
C2959      C2960   1.413       .  A
C2959      C2965   1.446       .  S
C2960      C2961   1.417       .  A
C2961      C2962   1.414       .  A
C2961      C2964   1.450       .  S
C2962      C2966   1.449       .  S
C2963      N2970   1.157       .  T
C2964      N2971   1.157       .  T
C2965      N2969   1.155       .  T
C2966      N2972   1.157       .  T
C2967      N2976   1.157       .  T
C2968      N2974   1.157       .  T
C2977      C2978   1.412       .  A
C2977      C2982   1.414       .  A
C2977      C2995   1.450       .  S
C2978      C2983   1.503       .  S
C2978      C2979   1.413       .  A
C2979      C2980   1.412       .  A
C2979      C2984   1.451       .  S
C2980      C2981   1.413       .  A
C2980      C2996   1.451       .  S
C2981      C2982   1.414       .  A
C2982      C2985   1.451       .  S
C2983      C2986   1.409       .  A
C2983      C2990   1.408       .  A
C2984      N3001   1.157       .  T
C2985      N3003   1.157       .  T
C2986      C2987   1.414       .  A
C2986      C2991   1.452       .  S
C2987      C2988   1.424       .  A
C2987      C2993   1.452       .  S
C2988      C2989   1.426       .  A
C2989      C2990   1.415       .  A
C2989      C2992   1.451       .  S
C2990      C2994   1.451       .  S
C2991      N2998   1.157       .  T
C2992      N2999   1.158       .  T
C2993      N2997   1.158       .  T
C2994      N3000   1.157       .  T
C2995      N3004   1.157       .  T
C2996      N3002   1.157       .  T
C3005      C3006   1.409       .  A
C3005      C3010   1.414       .  A
C3005      C3023   1.450       .  S
C3006      C3011   1.498       .  S
C3006      C3007   1.407       .  A
C3007      C3008   1.410       .  A
C3007      C3012   1.452       .  S
C3008      C3009   1.425       .  A
C3008      C3024   1.452       .  S
C3009      C3010   1.420       .  A
C3010      C3013   1.451       .  S
C3011      C3014   1.410       .  A
C3011      C3018   1.412       .  A
C3012      N3029   1.157       .  T
C3013      N3031   1.157       .  T
C3014      C3015   1.412       .  A
C3014      C3019   1.450       .  S
C3015      C3016   1.417       .  A
C3015      C3021   1.452       .  S
C3016      C3017   1.412       .  A
C3017      C3018   1.411       .  A
C3017      C3020   1.451       .  S
C3018      C3022   1.450       .  S
C3019      N3026   1.157       .  T
C3020      N3027   1.157       .  T
C3021      N3025   1.158       .  T
C3022      N3028   1.157       .  T
C3023      N3032   1.157       .  T
C3024      N3030   1.158       .  T
C3033      C3034   1.407       .  A
C3033      C3038   1.409       .  A
C3033      C3051   1.452       .  S
C3034      C3039   1.493       .  S
C3034      C3035   1.408       .  A
C3035      C3036   1.409       .  A
C3035      C3040   1.451       .  S
C3036      C3037   1.421       .  A
C3036      C3052   1.452       .  S
C3037      C3038   1.422       .  A
C3038      C3041   1.451       .  S
C3039      C3042   1.407       .  A
C3039      C3046   1.407       .  A
C3040      N3057   1.157       .  T
C3041      N3059   1.157       .  T
C3042      C3043   1.408       .  A
C3042      C3047   1.453       .  S
C3043      C3044   1.424       .  A
C3043      C3049   1.452       .  S
C3044      C3045   1.421       .  A
C3045      C3046   1.412       .  A
C3045      C3048   1.450       .  S
C3046      C3050   1.451       .  S
C3047      N3054   1.157       .  T
C3048      N3055   1.157       .  T
C3049      N3053   1.158       .  T
C3050      N3056   1.157       .  T
C3051      N3060   1.157       .  T
C3052      N3058   1.158       .  T
C3061      C3062   1.408       .  A
C3061      C3066   1.409       .  A
C3061      C3079   1.451       .  S
C3062      C3067   1.492       .  S
C3062      C3063   1.409       .  A
C3063      C3064   1.409       .  A
C3063      C3068   1.451       .  S
C3064      C3065   1.417       .  A
C3064      C3080   1.450       .  S
C3065      C3066   1.417       .  A
C3066      C3069   1.451       .  S
C3067      C3070   1.408       .  A
C3067      C3074   1.409       .  A
C3068      N3085   1.157       .  T
C3069      N3087   1.157       .  T
C3070      C3071   1.408       .  A
C3070      C3075   1.453       .  S
C3071      C3072   1.419       .  A
C3071      C3077   1.451       .  S
C3072      C3073   1.417       .  A
C3073      C3074   1.411       .  A
C3073      C3076   1.451       .  S
C3074      C3078   1.450       .  S
C3075      N3082   1.157       .  T
C3076      N3083   1.157   1_554  T
C3077      N3081   1.157       .  T
C3078      N3084   1.157       .  T
C3079      N3088   1.157       .  T
C3080      N3086   1.157       .  T
C3089      C3090   1.407   1_554  A
C3089      C3094   1.410   1_545  A
C3089      C3107   1.452       .  S
C3090      C3095   1.494       .  S
C3090      C3091   1.409       .  A
C3091      C3092   1.410   1_545  A
C3091      C3096   1.451       .  S
C3092      C3093   1.420   1_556  A
C3092      C3108   1.452       .  S
C3093      C3094   1.423       .  A
C3094      C3097   1.451       .  S
C3095      C3098   1.411   1_556  A
C3095      C3102   1.409       .  A
C3096      N3113   1.157       .  T
C3097      N3115   1.158       .  T
C3098      C3099   1.408   1_554  A
C3098      C3103   1.452       .  S
C3099      C3100   1.416       .  A
C3099      C3105   1.452   1_556  S
C3100      C3101   1.419       .  A
C3101      C3102   1.411       .  A
C3101      C3104   1.451       .  S
C3102      C3106   1.451       .  S
C3103      N3110   1.157       .  T
C3104      N3111   1.157       .  T
C3105      N3109   1.157       .  T
C3106      N3112   1.157       .  T
C3107      N3116   1.157       .  T
C3108      N3114   1.158       .  T
C3117      C3118   1.413       .  A
C3117      C3122   1.413       .  A
C3117      C3135   1.451       .  S
C3118      C3123   1.501       .  S
C3118      C3119   1.411       .  A
C3119      C3120   1.412       .  A
C3119      C3124   1.451       .  S
C3120      C3121   1.418       .  A
C3120      C3136   1.452       .  S
C3121      C3122   1.415       .  A
C3122      C3125   1.451       .  S
C3123      C3126   1.412       .  A
C3123      C3130   1.412       .  A
C3124      N3141   1.157       .  T
C3125      N3143   1.157       .  T
C3126      C3127   1.413       .  A
C3126      C3131   1.450       .  S
C3127      C3128   1.415       .  A
C3127      C3133   1.451       .  S
C3128      C3129   1.417       .  A
C3129      C3130   1.411       .  A
C3129      C3132   1.453       .  S
C3130      C3134   1.451       .  S
C3131      N3138   1.157   1_556  T
C3132      N3139   1.158       .  T
C3133      N3137   1.157   1_556  T
C3134      N3140   1.157       .  T
C3135      N3144   1.157   1_556  T
C3136      N3142   1.157       .  T
C3145      C3146   1.409       .  A
C3145      C3150   1.412       .  A
C3145      C3163   1.452       .  S
C3146      C3151   1.500       .  S
C3146      C3147   1.408   1_554  A
C3147      C3148   1.415       .  A
C3147      C3152   1.451       .  S
C3148      C3149   1.424       .  A
C3148      C3164   1.451       .  S
C3149      C3150   1.423   1_556  A
C3150      C3153   1.452       .  S
C3151      C3154   1.410   1_554  A
C3151      C3158   1.410       .  A
C3152      N3169   1.157       .  T
C3153      N3171   1.158       .  T
C3154      C3155   1.411   1_556  A
C3154      C3159   1.452       .  S
C3155      C3156   1.419       .  A
C3155      C3161   1.452   1_554  S
C3156      C3157   1.418       .  A
C3157      C3158   1.414       .  A
C3157      C3160   1.450       .  S
C3158      C3162   1.450       .  S
C3159      N3166   1.157       .  T
C3160      N3167   1.157       .  T
C3161      N3165   1.157       .  T
C3162      N3168   1.157       .  T
C3163      N3172   1.157       .  T
C3164      N3170   1.158       .  T
C3173      C3174   1.409       .  A
C3173      C3178   1.408       .  A
C3173      C3191   1.452       .  S
C3174      C3179   1.495       .  S
C3174      C3175   1.410       .  A
C3175      C3176   1.414       .  A
C3175      C3180   1.450       .  S
C3176      C3177   1.417       .  A
C3176      C3192   1.451       .  S
C3177      C3178   1.415       .  A
C3178      C3181   1.449       .  S
C3179      C3182   1.411       .  A
C3179      C3186   1.411       .  A
C3180      N3197   1.157       .  T
C3181      N3199   1.156       .  T
C3182      C3183   1.410       .  A
C3182      C3187   1.451       .  S
C3183      C3184   1.413       .  A
C3183      C3189   1.451       .  S
C3184      C3185   1.411       .  A
C3185      C3186   1.411       .  A
C3185      C3188   1.451       .  S
C3186      C3190   1.450       .  S
C3187      N3194   1.157       .  T
C3188      N3195   1.157       .  T
C3189      N3193   1.157       .  T
C3190      N3196   1.157       .  T
C3191      N3200   1.157       .  T
C3192      N3198   1.158       .  T
C3201      C3202   1.409       .  A
C3201      C3206   1.411       .  A
C3201      C3219   1.451       .  S
C3202      C3207   1.490       .  S
C3202      C3203   1.407       .  A
C3203      C3204   1.407       .  A
C3203      C3208   1.453       .  S
C3204      C3205   1.418       .  A
C3204      C3220   1.449       .  S
C3205      C3206   1.418       .  A
C3206      C3209   1.451       .  S
C3207      C3210   1.409       .  A
C3207      C3214   1.410       .  A
C3208      N3225   1.157       .  T
C3209      N3227   1.157       .  T
C3210      C3211   1.406       .  A
C3210      C3215   1.452       .  S
C3211      C3212   1.414       .  A
C3211      C3217   1.452       .  S
C3212      C3213   1.415       .  A
C3213      C3214   1.411       .  A
C3213      C3216   1.450       .  S
C3214      C3218   1.450       .  S
C3215      N3222   1.157       .  T
C3216      N3223   1.157       .  T
C3217      N3221   1.157       .  T
C3218      N3224   1.157       .  T
C3219      N3228   1.157       .  T
C3220      N3226   1.156       .  T
C3229      C3230   1.409       .  A
C3229      C3234   1.410       .  A
C3229      C3247   1.452       .  S
C3230      C3235   1.500       .  S
C3230      C3231   1.410       .  A
C3231      C3232   1.415       .  A
C3231      C3236   1.450       .  S
C3232      C3233   1.420       .  A
C3232      C3248   1.450       .  S
C3233      C3234   1.420       .  A
C3234      C3237   1.452       .  S
C3235      C3238   1.410       .  A
C3235      C3242   1.410       .  A
C3236      N3253   1.157       .  T
C3237      N3255   1.157       .  T
C3238      C3239   1.414       .  A
C3238      C3243   1.450       .  S
C3239      C3240   1.419       .  A
C3239      C3245   1.451       .  S
C3240      C3241   1.419       .  A
C3241      C3242   1.411       .  A
C3241      C3244   1.451       .  S
C3242      C3246   1.452       .  S
C3243      N3250   1.157       .  T
C3244      N3251   1.157       .  T
C3245      N3249   1.157       .  T
C3246      N3252   1.157       .  T
C3247      N3256   1.157       .  T
C3248      N3254   1.157       .  T
C3257      C3258   1.412       .  A
C3257      C3262   1.409       .  A
C3257      C3275   1.452       .  S
C3258      C3263   1.500       .  S
C3258      C3259   1.411       .  A
C3259      C3260   1.414       .  A
C3259      C3264   1.450       .  S
C3260      C3261   1.416       .  A
C3260      C3276   1.451       .  S
C3261      C3262   1.413       .  A
C3262      C3265   1.449       .  S
C3263      C3266   1.409       .  A
C3263      C3270   1.412       .  A
C3264      N3281   1.157       .  T
C3265      N3283   1.156       .  T
C3266      C3267   1.407       .  A
C3266      C3271   1.453       .  S
C3267      C3268   1.421       .  A
C3267      C3273   1.453       .  S
C3268      C3269   1.416       .  A
C3269      C3270   1.416       .  A
C3269      C3272   1.450       .  S
C3270      C3274   1.449       .  S
C3271      N3278   1.157       .  T
C3272      N3279   1.157       .  T
C3273      N3277   1.158       .  T
C3274      N3280   1.157       .  T
C3275      N3284   1.157       .  T
C3276      N3282   1.158       .  T
C3285      C3286   1.412       .  A
C3285      C3290   1.409       .  A
C3285      C3303   1.450       .  S
C3286      C3291   1.493   1_556  S
C3286      C3287   1.411       .  A
C3287      C3288   1.408       .  A
C3287      C3292   1.450       .  S
C3288      C3289   1.411       .  A
C3288      C3304   1.451       .  S
C3289      C3290   1.410       .  A
C3290      C3293   1.450       .  S
C3291      C3294   1.411       .  A
C3291      C3298   1.412       .  A
C3292      N3309   1.157   1_556  T
C3293      N3311   1.157       .  T
C3294      C3295   1.411       .  A
C3294      C3299   1.450       .  S
C3295      C3296   1.410       .  A
C3295      C3301   1.450       .  S
C3296      C3297   1.410       .  A
C3297      C3298   1.406       .  A
C3297      C3300   1.453       .  S
C3298      C3302   1.451       .  S
C3299      N3306   1.157   1_554  T
C3300      N3307   1.157       .  T
C3301      N3305   1.157       .  T
C3302      N3308   1.157   1_554  T
C3303      N3312   1.157       .  T
C3304      N3310   1.157       .  T
C3313      C3314   1.411       .  A
C3313      C3318   1.410       .  A
C3313      C3331   1.452       .  S
C3314      C3319   1.496       .  S
C3314      C3315   1.410       .  A
C3315      C3316   1.413       .  A
C3315      C3320   1.450       .  S
C3316      C3317   1.415       .  A
C3316      C3332   1.451       .  S
C3317      C3318   1.414       .  A
C3318      C3321   1.450       .  S
C3319      C3322   1.411       .  A
C3319      C3326   1.410       .  A
C3320      N3337   1.157       .  T
C3321      N3339   1.157       .  T
C3322      C3323   1.411       .  A
C3322      C3327   1.450       .  S
C3323      C3324   1.413       .  A
C3323      C3329   1.451       .  S
C3324      C3325   1.414       .  A
C3325      C3326   1.410       .  A
C3325      C3328   1.450       .  S
C3326      C3330   1.451       .  S
C3327      N3334   1.157       .  T
C3328      N3335   1.157       .  T
C3329      N3333   1.157       .  T
C3330      N3336   1.157       .  T
C3331      N3340   1.157       .  T
C3332      N3338   1.157       .  T
C3341      C3342   1.411       .  A
C3341      C3346   1.412       .  A
C3341      C3359   1.451       .  S
C3342      C3347   1.502       .  S
C3342      C3343   1.410       .  A
C3343      C3344   1.415       .  A
C3343      C3348   1.451       .  S
C3344      C3345   1.421       .  A
C3344      C3360   1.450       .  S
C3345      C3346   1.419       .  A
C3346      C3349   1.452       .  S
C3347      C3350   1.410       .  A
C3347      C3354   1.411       .  A
C3348      N3365   1.157       .  T
C3349      N3367   1.157       .  T
C3350      C3351   1.415       .  A
C3350      C3355   1.450       .  S
C3351      C3352   1.420       .  A
C3351      C3357   1.451       .  S
C3352      C3353   1.418       .  A
C3353      C3354   1.411       .  A
C3353      C3356   1.452       .  S
C3354      C3358   1.451       .  S
C3355      N3362   1.157       .  T
C3356      N3363   1.157       .  T
C3357      N3361   1.157       .  T
C3358      N3364   1.157       .  T
C3359      N3368   1.157       .  T
C3360      N3366   1.158       .  T
C3369      C3370   1.411       .  A
C3369      C3374   1.410       .  A
C3369      C3387   1.451       .  S
C3370      C3375   1.496       .  S
C3370      C3371   1.411       .  A
C3371      C3372   1.411       .  A
C3371      C3376   1.450       .  S
C3372      C3373   1.414       .  A
C3372      C3388   1.451       .  S
C3373      C3374   1.414       .  A
C3374      C3377   1.451       .  S
C3375      C3378   1.409       .  A
C3375      C3382   1.410       .  A
C3376      N3393   1.157       .  T
C3377      N3395   1.157       .  T
C3378      C3379   1.409       .  A
C3378      C3383   1.452       .  S
C3379      C3380   1.419       .  A
C3379      C3385   1.451       .  S
C3380      C3381   1.419       .  A
C3381      C3382   1.413       .  A
C3381      C3384   1.451       .  S
C3382      C3386   1.451       .  S
C3383      N3390   1.157       .  T
C3384      N3391   1.158       .  T
C3385      N3389   1.157       .  T
C3386      N3392   1.157       .  T
C3387      N3396   1.157       .  T
C3388      N3394   1.157       .  T
C3397      C3398   1.409       .  A
C3397      C3402   1.411       .  A
C3397      C3415   1.450       .  S
C3398      C3403   1.491       .  S
C3398      C3399   1.410       .  A
C3399      C3400   1.407       .  A
C3399      C3404   1.452       .  S
C3400      C3401   1.414       .  A
C3400      C3416   1.450       .  S
C3401      C3402   1.415       .  A
C3402      C3405   1.451       .  S
C3403      C3406   1.409   1_554  A
C3403      C3410   1.410   1_554  A
C3404      N3421   1.157   1_554  T
C3405      N3423   1.157       .  T
C3406      C3407   1.407       .  A
C3406      C3411   1.451   1_556  S
C3407      C3408   1.414       .  A
C3407      C3413   1.451       .  S
C3408      C3409   1.412       .  A
C3409      C3410   1.410       .  A
C3409      C3412   1.451       .  S
C3410      C3414   1.450   1_556  S
C3411      N3418   1.157       .  T
C3412      N3419   1.157       .  T
C3413      N3417   1.157       .  T
C3414      N3420   1.157       .  T
C3415      N3424   1.157       .  T
C3416      N3422   1.157       .  T
C3425      C3426   1.412       .  A
C3425      C3430   1.416       .  A
C3425      C3443   1.449       .  S
C3426      C3431   1.494       .  S
C3426      C3427   1.409       .  A
C3427      C3428   1.404       .  A
C3427      C3432   1.453       .  S
C3428      C3429   1.415       .  A
C3428      C3444   1.453       .  S
C3429      C3430   1.413       .  A
C3430      C3433   1.450       .  S
C3431      C3434   1.410       .  A
C3431      C3438   1.412       .  A
C3432      N3449   1.157       .  T
C3433      N3451   1.157       .  T
C3434      C3435   1.406   1_554  A
C3434      C3439   1.452       .  S
C3435      C3436   1.412       .  A
C3435      C3441   1.450       .  S
C3436      C3437   1.411   1_556  A
C3437      C3438   1.414       .  A
C3437      C3440   1.450       .  S
C3438      C3442   1.449       .  S
C3439      N3446   1.157       .  T
C3440      N3447   1.157       .  T
C3441      N3445   1.156       .  T
C3442      N3448   1.157       .  T
C3443      N3452   1.157       .  T
C3444      N3450   1.157       .  T
C3453      C3454   1.412       .  A
C3453      C3458   1.412       .  A
C3453      C3471   1.451       .  S
C3454      C3459   1.497       .  S
C3454      C3455   1.408       .  A
C3455      C3456   1.411       .  A
C3455      C3460   1.451       .  S
C3456      C3457   1.419       .  A
C3456      C3472   1.451       .  S
C3457      C3458   1.416       .  A
C3458      C3461   1.451       .  S
C3459      C3462   1.409       .  A
C3459      C3466   1.412       .  A
C3460      N3477   1.157       .  T
C3461      N3479   1.157       .  T
C3462      C3463   1.410       .  A
C3462      C3467   1.451       .  S
C3463      C3464   1.418       .  A
C3463      C3469   1.452       .  S
C3464      C3465   1.415       .  A
C3465      C3466   1.411       .  A
C3465      C3468   1.451       .  S
C3466      C3470   1.450       .  S
C3467      N3474   1.157       .  T
C3468      N3475   1.158       .  T
C3469      N3473   1.157       .  T
C3470      N3476   1.157       .  T
C3471      N3480   1.157       .  T
C3472      N3478   1.157       .  T
C3481      C3482   1.410       .  A
C3481      C3486   1.408       .  A
C3481      C3499   1.453       .  S
C3482      C3487   1.499       .  S
C3482      C3483   1.411       .  A
C3483      C3484   1.414       .  A
C3483      C3488   1.449       .  S
C3484      C3485   1.417       .  A
C3484      C3500   1.451       .  S
C3485      C3486   1.421       .  A
C3486      C3489   1.453       .  S
C3487      C3490   1.413       .  A
C3487      C3494   1.409       .  A
C3488      N3505   1.157       .  T
C3489      N3507   1.158       .  T
C3490      C3491   1.412       .  A
C3490      C3495   1.451       .  S
C3491      C3492   1.414       .  A
C3491      C3497   1.451       .  S
C3492      C3493   1.416       .  A
C3493      C3494   1.412       .  A
C3493      C3496   1.447       .  S
C3494      C3498   1.451       .  S
C3495      N3502   1.157       .  T
C3496      N3503   1.156       .  T
C3497      N3501   1.157       .  T
C3498      N3504   1.157       .  T
C3499      N3508   1.157       .  T
C3500      N3506   1.157       .  T
C3509      C3510   1.408       .  A
C3509      C3514   1.413       .  A
C3509      C3527   1.450       .  S
C3510      C3515   1.494       .  S
C3510      C3511   1.409       .  A
C3511      C3512   1.407       .  A
C3511      C3516   1.453       .  S
C3512      C3513   1.421       .  A
C3512      C3528   1.453       .  S
C3513      C3514   1.418       .  A
C3514      C3517   1.450       .  S
C3515      C3518   1.409       .  A
C3515      C3522   1.409       .  A
C3516      N3533   1.157       .  T
C3517      N3535   1.157       .  T
C3518      C3519   1.409       .  A
C3518      C3523   1.452       .  S
C3519      C3520   1.415       .  A
C3519      C3525   1.449       .  S
C3520      C3521   1.417       .  A
C3521      C3522   1.412       .  A
C3521      C3524   1.451       .  S
C3522      C3526   1.450       .  S
C3523      N3530   1.157       .  T
C3524      N3531   1.157       .  T
C3525      N3529   1.156       .  T
C3526      N3532   1.157       .  T
C3527      N3536   1.157       .  T
C3528      N3534   1.157       .  T
C3537      C3538   1.411       .  A
C3537      C3542   1.410       .  A
C3537      C3555   1.450       .  S
C3538      C3543   1.493       .  S
C3538      C3539   1.410       .  A
C3539      C3540   1.408       .  A
C3539      C3544   1.451       .  S
C3540      C3541   1.413       .  A
C3540      C3556   1.452       .  S
C3541      C3542   1.411       .  A
C3542      C3545   1.450       .  S
C3543      C3546   1.409       .  A
C3543      C3550   1.410       .  A
C3544      N3561   1.157       .  T
C3545      N3563   1.157       .  T
C3546      C3547   1.410       .  A
C3546      C3551   1.451       .  S
C3547      C3548   1.417       .  A
C3547      C3553   1.452   1_556  S
C3548      C3549   1.416       .  A
C3549      C3550   1.409       .  A
C3549      C3552   1.451       .  S
C3550      C3554   1.452       .  S
C3551      N3558   1.157       .  T
C3552      N3559   1.157       .  T
C3553      N3557   1.157       .  T
C3554      N3560   1.157       .  T
C3555      N3564   1.157       .  T
C3556      N3562   1.157       .  T
C3565      C3566   1.411       .  A
C3565      C3570   1.411       .  A
C3565      C3583   1.450       .  S
C3566      C3571   1.490       .  S
C3566      C3567   1.409       .  A
C3567      C3568   1.406       .  A
C3567      C3572   1.452       .  S
C3568      C3569   1.413       .  A
C3568      C3584   1.450       .  S
C3569      C3570   1.412       .  A
C3570      C3573   1.451       .  S
C3571      C3574   1.407       .  A
C3571      C3578   1.408       .  A
C3572      N3589   1.157       .  T
C3573      N3591   1.157       .  T
C3574      C3575   1.408       .  A
C3574      C3579   1.453       .  S
C3575      C3576   1.421       .  A
C3575      C3581   1.449       .  S
C3576      C3577   1.419       .  A
C3577      C3578   1.411       .  A
C3577      C3580   1.451       .  S
C3578      C3582   1.451       .  S
C3579      N3586   1.157       .  T
C3580      N3587   1.157       .  T
C3581      N3585   1.156       .  T
C3582      N3588   1.157       .  T
C3583      N3592   1.157       .  T
C3584      N3590   1.157       .  T
C3593      C3594   1.409       .  A
C3593      C3598   1.405       .  A
C3593      C3611   1.453       .  S
C3594      C3599   1.491       .  S
C3594      C3595   1.411       .  A
C3595      C3596   1.413       .  A
C3595      C3600   1.449       .  S
C3596      C3597   1.412       .  A
C3596      C3612   1.450       .  S
C3597      C3598   1.412       .  A
C3598      C3601   1.449       .  S
C3599      C3602   1.412       .  A
C3599      C3606   1.411       .  A
C3600      N3617   1.157       .  T
C3601      N3619   1.156       .  T
C3602      C3603   1.411       .  A
C3602      C3607   1.449       .  S
C3603      C3604   1.411       .  A
C3603      C3609   1.450       .  S
C3604      C3605   1.410       .  A
C3605      C3606   1.404       .  A
C3605      C3608   1.453       .  S
C3606      C3610   1.451       .  S
C3607      N3614   1.157       .  T
C3608      N3615   1.157       .  T
C3609      N3613   1.157       .  T
C3610      N3616   1.157       .  T
C3611      N3620   1.157       .  T
C3612      N3618   1.157       .  T
C3621      C3622   1.413       .  A
C3621      C3626   1.408       .  A
C3621      C3639   1.451       .  S
C3622      C3627   1.498       .  S
C3622      C3623   1.412       .  A
C3623      C3624   1.411       .  A
C3623      C3628   1.451       .  S
C3624      C3625   1.416       .  A
C3624      C3640   1.451       .  S
C3625      C3626   1.413       .  A
C3626      C3629   1.452       .  S
C3627      C3630   1.411       .  A
C3627      C3634   1.409       .  A
C3628      N3645   1.157       .  T
C3629      N3647   1.157       .  T
C3630      C3631   1.410       .  A
C3630      C3635   1.452       .  S
C3631      C3632   1.418       .  A
C3631      C3637   1.452       .  S
C3632      C3633   1.422       .  A
C3633      C3634   1.411       .  A
C3633      C3636   1.451       .  S
C3634      C3638   1.452       .  S
C3635      N3642   1.157       .  T
C3636      N3643   1.158       .  T
C3637      N3641   1.157       .  T
C3638      N3644   1.157       .  T
C3639      N3648   1.157       .  T
C3640      N3646   1.157       .  T
C3649      C3650   1.410       .  A
C3649      C3654   1.405   1_455  A
C3649      C3667   1.452       .  S
C3650      C3655   1.497       .  S
C3650      C3651   1.415   1_455  A
C3651      C3652   1.415       .  A
C3651      C3656   1.449       .  S
C3652      C3653   1.410       .  A
C3652      C3668   1.449       .  S
C3653      C3654   1.411       .  A
C3654      C3657   1.448       .  S
C3655      C3658   1.410       .  A
C3655      C3662   1.414       .  A
C3656      N3673   1.157       .  T
C3657      N3675   1.155       .  T
C3658      C3659   1.407       .  A
C3658      C3663   1.452       .  S
C3659      C3660   1.416       .  A
C3659      C3665   1.451       .  S
C3660      C3661   1.414       .  A
C3661      C3662   1.414       .  A
C3661      C3664   1.451       .  S
C3662      C3666   1.450       .  S
C3663      N3670   1.157       .  T
C3664      N3671   1.157       .  T
C3665      N3669   1.157       .  T
C3666      N3672   1.157       .  T
C3667      N3676   1.157       .  T
C3668      N3674   1.157       .  T
C3677      C3678   1.412       .  A
C3677      C3682   1.412       .  A
C3677      C3695   1.451       .  S
C3678      C3683   1.504       .  S
C3678      C3679   1.413       .  A
C3679      C3680   1.414       .  A
C3679      C3684   1.450       .  S
C3680      C3681   1.414       .  A
C3680      C3696   1.449       .  S
C3681      C3682   1.416       .  A
C3682      C3685   1.452       .  S
C3683      C3686   1.411       .  A
C3683      C3690   1.412       .  A
C3684      N3701   1.157       .  T
C3685      N3703   1.157       .  T
C3686      C3687   1.411       .  A
C3686      C3691   1.452       .  S
C3687      C3688   1.420       .  A
C3687      C3693   1.452       .  S
C3688      C3689   1.417       .  A
C3689      C3690   1.415       .  A
C3689      C3692   1.450       .  S
C3690      C3694   1.450       .  S
C3691      N3698   1.157       .  T
C3692      N3699   1.157       .  T
C3693      N3697   1.158       .  T
C3694      N3700   1.157       .  T
C3695      N3704   1.157       .  T
C3696      N3702   1.157       .  T
C3705      C3706   1.410       .  A
C3705      C3710   1.414       .  A
C3705      C3723   1.451       .  S
C3706      C3711   1.504       .  S
C3706      C3707   1.409       .  A
C3707      C3708   1.415       .  A
C3707      C3712   1.450       .  S
C3708      C3709   1.421       .  A
C3708      C3724   1.450       .  S
C3709      C3710   1.422       .  A
C3710      C3713   1.451       .  S
C3711      C3714   1.409       .  A
C3711      C3718   1.408       .  A
C3712      N3729   1.157       .  T
C3713      N3731   1.157       .  T
C3714      C3715   1.414       .  A
C3714      C3719   1.452       .  S
C3715      C3716   1.425       .  A
C3715      C3721   1.451       .  S
C3716      C3717   1.426       .  A
C3717      C3718   1.417       .  A
C3717      C3720   1.451       .  S
C3718      C3722   1.450       .  S
C3719      N3726   1.157       .  T
C3720      N3727   1.158       .  T
C3721      N3725   1.158       .  T
C3722      N3728   1.157       .  T
C3723      N3732   1.157       .  T
C3724      N3730   1.157       .  T
C3733      C3734   1.409       .  A
C3733      C3738   1.413       .  A
C3733      C3751   1.449       .  S
C3734      C3739   1.492       .  S
C3734      C3735   1.410       .  A
C3735      C3736   1.404       .  A
C3735      C3740   1.454       .  S
C3736      C3737   1.417       .  A
C3736      C3752   1.452       .  S
C3737      C3738   1.418       .  A
C3738      C3741   1.451       .  S
C3739      C3742   1.409       .  A
C3739      C3746   1.410       .  A
C3740      N3757   1.157       .  T
C3741      N3759   1.157       .  T
C3742      C3743   1.409       .  A
C3742      C3747   1.451       .  S
C3743      C3744   1.414       .  A
C3743      C3749   1.450       .  S
C3744      C3745   1.413       .  A
C3745      C3746   1.408       .  A
C3745      C3748   1.451       .  S
C3746      C3750   1.450       .  S
C3747      N3754   1.157       .  T
C3748      N3755   1.157       .  T
C3749      N3753   1.156       .  T
C3750      N3756   1.157       .  T
C3751      N3760   1.157       .  T
C3752      N3758   1.157       .  T
C3761      C3762   1.411       .  A
C3761      C3766   1.408       .  A
C3761      C3779   1.450       .  S
C3762      C3767   1.490       .  S
C3762      C3763   1.410       .  A
C3763      C3764   1.408       .  A
C3763      C3768   1.450       .  S
C3764      C3765   1.412       .  A
C3764      C3780   1.452       .  S
C3765      C3766   1.409       .  A
C3766      C3769   1.451       .  S
C3767      C3770   1.408       .  A
C3767      C3774   1.408       .  A
C3768      N3785   1.157       .  T
C3769      N3787   1.157       .  T
C3770      C3771   1.411       .  A
C3770      C3775   1.450       .  S
C3771      C3772   1.417       .  A
C3771      C3777   1.451       .  S
C3772      C3773   1.419       .  A
C3773      C3774   1.408       .  A
C3773      C3776   1.450       .  S
C3774      C3778   1.452       .  S
C3775      N3782   1.157       .  T
C3776      N3783   1.156       .  T
C3777      N3781   1.157       .  T
C3778      N3784   1.157       .  T
C3779      N3788   1.157       .  T
C3780      N3786   1.157       .  T
C3789      C3790   1.409       .  A
C3789      C3794   1.407       .  A
C3789      C3807   1.451       .  S
C3790      C3795   1.491       .  S
C3790      C3791   1.411       .  A
C3791      C3792   1.410       .  A
C3791      C3796   1.450       .  S
C3792      C3793   1.413       .  A
C3792      C3808   1.451       .  S
C3793      C3794   1.414       .  A
C3794      C3797   1.452       .  S
C3795      C3798   1.408       .  A
C3795      C3802   1.408       .  A
C3796      N3813   1.157       .  T
C3797      N3815   1.157       .  T
C3798      C3799   1.406       .  A
C3798      C3803   1.452       .  S
C3799      C3800   1.419       .  A
C3799      C3805   1.452       .  S
C3800      C3801   1.420       .  A
C3801      C3802   1.412       .  A
C3801      C3804   1.451       .  S
C3802      C3806   1.450       .  S
C3803      N3810   1.157       .  T
C3804      N3811   1.157       .  T
C3805      N3809   1.157       .  T
C3806      N3812   1.157       .  T
C3807      N3816   1.157       .  T
C3808      N3814   1.157       .  T
