geometry optimzed in LAMMPS
_audit_creation_date              2020-11-30 
_audit_creation_method            'lammps2cif' 
_symmetry_space_group_name_H-M    'P1' 
_symmetry_Int_Tables_number       1 
_symmetry_cell_setting            triclinic 
loop_ 
_symmetry_equiv_pos_as_xyz 
  x,y,z 
_cell_length_a                    56.59494916 
_cell_length_b                    56.46987892400402 
_cell_length_c                    77.52077709506095 
_cell_angle_alpha                 89.90752010822696 
_cell_angle_beta                  89.93966425013701 
_cell_angle_gamma                 119.97970164081394 
loop_ 
_atom_site_label 
_atom_site_type_symbol 
_atom_site_fract_x 
_atom_site_fract_y 
_atom_site_fract_z 
_atom_site_charge 
O1          O  0.04342398  0.24240669  0.97592998    -0.85100
O2          O  0.03327333  0.20196322  0.99950122    -0.82100
C3          C  0.02906433  0.17913670  0.00507331     0.98400
O4          O  0.04071238  0.16739123  0.99794846    -0.82100
O5          O  0.01677604  0.14823961  0.96611231    -0.84800
C6          C  0.00954723  0.14965074  0.95093092     1.02900
O7          O  0.02378956  0.17060726  0.94195008    -0.77600
O8          O  0.01725076  0.21147898  0.95724082    -0.77700
C9          C  0.02128141  0.23031233  0.96771124     1.02900
O10         O  0.09829487  0.25342674  0.97215845    -0.85100
O11         O  0.08896851  0.21721723  0.99902331    -0.82100
C12         C  0.10259511  0.20647606  0.99406521     0.98400
O13         O  0.09398569  0.18936391  0.98191184    -0.82200
O14         O  0.06988664  0.16750773  0.95058690    -0.84800
C15         C  0.08225612  0.18500630  0.93871928     1.02900
O16         O  0.08008273  0.20625856  0.93785457    -0.77600
O17         O  0.07350893  0.24893927  0.94946439    -0.77700
C18         C  0.09547167  0.26210768  0.95771017     1.02800
Cr19       Cr  0.06539678  0.22684256  0.98539253     1.93700
Cr20       Cr  0.05543308  0.17051516  0.97382481     1.93200
Cr21       Cr  0.04914228  0.20876866  0.94827946     1.39100
O22         O  0.05664044  0.20182831  0.96918015    -1.22800
O23         O  0.28212839  0.46777261  0.85549459    -0.85100
O24         O  0.30452295  0.44459113  0.83589527    -0.82100
C25         C  0.32948611  0.46320832  0.83544772     0.98400
O26         O  0.34456229  0.46685828  0.84835038    -0.82100
O27         O  0.35947846  0.47120921  0.88264132    -0.84800
C28         C  0.35754154  0.49130694  0.88806004     1.02900
O29         O  0.33479977  0.49021682  0.88764972    -0.77600
O30         O  0.27965844  0.47138725  0.88344552    -0.77700
C31         C  0.27741451  0.47836694  0.86827145     1.02900
O32         O  0.24782806  0.41679773  0.87376996    -0.85100
O33         O  0.27329427  0.39459177  0.85599333    -0.82100
C34         C  0.29133954  0.38993870  0.85035984     0.98400
O35         O  0.31619260  0.40834980  0.85086418    -0.82200
O36         O  0.32586313  0.41313116  0.88624393    -0.84800
C37         C  0.32515137  0.41951062  0.90179428     1.02900
O38         O  0.32261351  0.44013016  0.90518143    -0.77600
O39         O  0.26962652  0.42049671  0.89788893    -0.77700
C40         C  0.24786583  0.41017540  0.88943484     1.02800
Cr41       Cr  0.27882583  0.43163212  0.85640535     1.93700
Cr42       Cr  0.33444263  0.44001252  0.86728377     1.93200
Cr43       Cr  0.30195774  0.45482260  0.89200009     1.39100
O44         O  0.30497643  0.44213472  0.87187675    -1.22800
O45         O  0.27527327  0.31123047  0.31904420    -0.85100
O46         O  0.30086592  0.35588178  0.33891381    -0.82100
C47         C  0.32538049  0.36075207  0.33899404     0.98400
O48         O  0.34045621  0.37180947  0.32599302    -0.82100
O49         O  0.35514145  0.38307488  0.29153396    -0.84800
C50         C  0.35157191  0.36043529  0.28601080     1.02900
O51         O  0.32818527  0.33983460  0.28653305    -0.77600
O52         O  0.27355612  0.30514607  0.29115989    -0.77700
C53         C  0.27109852  0.29588220  0.30636669     1.02900
O54         O  0.24337284  0.33187082  0.30184879    -0.85100
O55         O  0.27226241  0.37884140  0.32037661    -0.82100
C56         C  0.29140195  0.40033140  0.32669527     0.98400
O57         O  0.31582456  0.40570161  0.32487526    -0.82200
O58         O  0.32465334  0.41082258  0.28919155    -0.84800
C59         C  0.32293174  0.40398642  0.27348570     1.02900
O60         O  0.31794000  0.38000719  0.26963787    -0.77600
O61         O  0.26456481  0.34728810  0.27708716    -0.77700
C62         C  0.24324157  0.33763028  0.28600996     1.02800
Cr63       Cr  0.27480212  0.34557707  0.31878081     1.93700
Cr64       Cr  0.33168112  0.39060255  0.30760636     1.93200
Cr65       Cr  0.29644722  0.34424974  0.28269613     1.39100
O66         O  0.30072186  0.36016035  0.30297950    -1.22800
O67         O  0.04612639  0.31003582  0.19649337    -0.85100
O68         O  0.03629317  0.33994750  0.17270916    -0.82100
C69         C  0.03024289  0.35742424  0.16742765     0.98400
O70         O  0.04098247  0.38084788  0.17443569    -0.82100
O71         O  0.01318741  0.37209619  0.20505169    -0.84800
C72         C  0.00511721  0.36269332  0.22000422     1.02900
O73         O  0.02001462  0.35799861  0.22976881    -0.77600
O74         O  0.01764191  0.31252813  0.21451243    -0.77700
C75         C  0.02340172  0.29877837  0.20424282     1.02900
O76         O  0.09999778  0.35567200  0.20233783    -0.85100
O77         O  0.09145218  0.38336827  0.17547555    -0.82100
C78         C  0.10306451  0.40750867  0.18117146     0.98400
O79         O  0.09184825  0.41385638  0.19290324    -0.82200
O80         O  0.06365632  0.40774630  0.22289174    -0.84800
C81         C  0.07637263  0.40334430  0.23481183     1.02900
O82         O  0.07636709  0.38094384  0.23528080    -0.77600
O83         O  0.07330479  0.33329680  0.22391896    -0.77700
C84         C  0.09634468  0.34366916  0.21671871     1.02800
Cr85       Cr  0.06773022  0.34842135  0.18788487     1.93700
Cr86       Cr  0.05269910  0.39150003  0.19908662     1.93200
Cr87       Cr  0.04739777  0.34727759  0.22430741     1.39100
O88         O  0.05592619  0.36253755  0.20371046    -1.22800
O89         O  0.31218353  0.03320074  0.15307083    -0.85100
O90         O  0.35820403  0.05412757  0.17223094    -0.82100
C91         C  0.36429641  0.03524770  0.17198693     0.98400
O92         O  0.37452195  0.03136976  0.15854286    -0.82100
O93         O  0.38310401  0.02772292  0.12361009    -0.84800
C94         C  0.36024266  0.00886179  0.11813765     1.02900
O95         O  0.33937923  0.01096310  0.12000223    -0.77600
O96         O  0.30523717  0.03179382  0.12527111    -0.77700
C97         C  0.29629943  0.02418451  0.14043157     1.02900
O98         O  0.32982045  0.08525252  0.13597579    -0.85100
O99         O  0.37791248  0.10541047  0.15330474    -0.82100
C100        C  0.40061589  0.10915722  0.15826554     0.98400
O101        O  0.40624301  0.09012805  0.15705798    -0.82200
O102        O  0.40948590  0.08658671  0.12141691    -0.84800
C103        C  0.40181889  0.08095575  0.10591634     1.02900
O104        O  0.37843948  0.06079476  0.10253735    -0.77600
O105        O  0.34725273  0.08221836  0.11131122    -0.77700
C106        C  0.33566572  0.09189832  0.12021567     1.02800
Cr107      Cr  0.34563577  0.06885343  0.15252441     1.93700
Cr108      Cr  0.39122161  0.05890008  0.13996610     1.93200
Cr109      Cr  0.34368604  0.04705755  0.11627794     1.39100
O110        O  0.36015782  0.05836832  0.13629783    -1.22800
O111        O  0.30292928  0.25672627  0.03155781    -0.85100
O112        O  0.33325205  0.29877899  0.00862486    -0.82100
C113        C  0.35188901  0.32186582  0.00337696     0.98400
O114        O  0.37525267  0.33346704  0.01053663    -0.82100
O115        O  0.36918918  0.35403067  0.04128818    -0.84800
C116        C  0.35720623  0.35250990  0.05532499     1.02900
O117        O  0.34762850  0.33126041  0.06452974    -0.77600
O118        O  0.30389303  0.28774428  0.04852837    -0.77700
C119        C  0.29106058  0.26833831  0.03808312     1.02900
O120        O  0.34839348  0.24961662  0.03727537    -0.85100
O121        O  0.37545615  0.28594820  0.01015040    -0.82100
C122        C  0.39932882  0.29656928  0.01591464     0.98400
O123        O  0.40590879  0.31192588  0.02890369    -0.82200
O124        O  0.40107670  0.33478600  0.05901707    -0.84800
C125        C  0.39417200  0.31828010  0.07162478     1.02900
O126        O  0.37037050  0.29786645  0.07264419    -0.77600
O127        O  0.32558786  0.25305515  0.05922126    -0.77700
C128        C  0.33617856  0.24080383  0.05155084     1.02800
Cr129      Cr  0.34115619  0.27470827  0.02316940     1.93700
Cr130      Cr  0.38553406  0.33110270  0.03523754     1.93200
Cr131      Cr  0.33808524  0.29303573  0.05963048     1.39100
O132        O  0.35513041  0.29992675  0.03947383    -1.22800
O133        O  0.23625022  0.19023313  0.81226055    -0.85100
O134        O  0.19416548  0.15855466  0.83436775    -0.82100
C135        C  0.17091404  0.13981303  0.83921299     0.98400
O136        O  0.15906556  0.11707439  0.83116585    -0.82100
O137        O  0.14185326  0.12440643  0.79893477    -0.84800
C138        C  0.14438666  0.13464705  0.78404976     1.02900
O139        O  0.16647695  0.14350265  0.77594084    -0.77600
O140        O  0.20663854  0.18802488  0.79337827    -0.77700
C141        C  0.22497076  0.20145200  0.80433939     1.02900
O142        O  0.24609759  0.14575239  0.80710574    -0.85100
O143        O  0.20774394  0.11710233  0.83279739    -0.82100
C144        C  0.19885552  0.09381216  0.82636067     0.98400
O145        O  0.18232805  0.08658589  0.81392101    -0.82200
O146        O  0.16254773  0.09255945  0.78261771    -0.84800
C147        C  0.18047547  0.09927296  0.77082989     1.02900
O148        O  0.20186746  0.12247539  0.77116246    -0.77600
O149        O  0.24417765  0.16927755  0.78522763    -0.77700
C150        C  0.25606073  0.15867914  0.79319767     1.02800
Cr151      Cr  0.21928793  0.15177694  0.82029583     1.93700
Cr152      Cr  0.16382067  0.10738938  0.80654494     1.93200
Cr153      Cr  0.20409600  0.15460020  0.78305458     1.39100
O154        O  0.19540259  0.13778572  0.80328690    -1.22800
O155        O  0.46224337  0.18604826  0.68877243    -0.85100
O156        O  0.44030285  0.14142721  0.66877820    -0.82100
C157        C  0.45998836  0.13661518  0.66808351     0.98400
O158        O  0.46443637  0.12536452  0.68079499    -0.82100
O159        O  0.46958074  0.11351554  0.71483371    -0.84800
C160        C  0.48913526  0.13573479  0.72055743     1.02900
O161        O  0.48700518  0.15682580  0.72074425    -0.77600
O162        O  0.46695791  0.19205686  0.71668355    -0.77700
C163        C  0.47329291  0.20137863  0.70143652     1.02900
O164        O  0.41171085  0.16835249  0.70757212    -0.85100
O165        O  0.39039402  0.12060593  0.68925575    -0.82100
C166        C  0.38654714  0.09846777  0.68303622     0.98400
O167        O  0.40572037  0.09296074  0.68317637    -0.82200
O168        O  0.41147709  0.08683297  0.71839523    -0.84800
C169        C  0.41772653  0.09324021  0.73402876     1.02900
O170        O  0.43702386  0.11703334  0.73783162    -0.77600
O171        O  0.41627378  0.14965909  0.73114177    -0.77700
C172        C  0.40608915  0.16185296  0.72336962     1.02800
Cr173      Cr  0.42686268  0.15289111  0.68973272     1.93700
Cr174      Cr  0.43782425  0.10682363  0.69957772     1.93200
Cr175      Cr  0.45101206  0.15288729  0.72504979     1.39100
O176        O  0.43850552  0.13757338  0.70481693    -1.22800
O177        O  0.44921412  0.25667579  0.47701030    -0.85100
O178        O  0.46045712  0.29873055  0.49942355    -0.82100
C179        C  0.46570806  0.32244784  0.50387508     0.98400
O180        O  0.45298670  0.33328138  0.49692884    -0.82100
O181        O  0.47478244  0.35074839  0.46449769    -0.84800
C182        C  0.48139643  0.34859635  0.44927582     1.02900
O183        O  0.46784953  0.32660789  0.44115273    -0.77600
O184        O  0.47485207  0.28698223  0.45766174    -0.77700
C185        C  0.47092082  0.26830511  0.46823311     1.02900
O186        O  0.39383508  0.24573205  0.47356331    -0.85100
O187        O  0.40462723  0.28361659  0.49977667    -0.82100
C188        C  0.38994749  0.29277808  0.49410183     0.98400
O189        O  0.39825574  0.30905304  0.48149646    -0.82200
O190        O  0.42101144  0.32917691  0.44987155    -0.84800
C191        C  0.40864669  0.31082573  0.43852485     1.02900
O192        O  0.41135952  0.28992910  0.43825525    -0.77600
O193        O  0.41864022  0.24872356  0.45124010    -0.77700
C194        C  0.39604706  0.23683922  0.45901473     1.02800
Cr195      Cr  0.42753346  0.27289147  0.48619166     1.93700
Cr196      Cr  0.43665822  0.32821466  0.47305613     1.93200
Cr197      Cr  0.44279000  0.28874251  0.44866283     1.39100
O198        O  0.43591285  0.29696712  0.46932347    -1.22800
O199        O  0.21323992  0.02916261  0.35587247    -0.85100
O200        O  0.18894951  0.05104431  0.33675001    -0.82100
C201        C  0.16403067  0.03236790  0.33634856     0.98400
O202        O  0.14922889  0.02775426  0.34953604    -0.82100
O203        O  0.13524379  0.02209188  0.38408346    -0.84800
C204        C  0.13863198  0.00267182  0.38927792     1.02900
O205        O  0.16181039  0.00498742  0.38837877    -0.77600
O206        O  0.21674025  0.02547746  0.38365370    -0.77700
C207        C  0.21856665  0.01855340  0.36838950     1.02900
O208        O  0.24668596  0.08075827  0.37379202    -0.85100
O209        O  0.21941731  0.10113424  0.35622703    -0.82100
C210        C  0.20078532  0.10513089  0.35091472     0.98400
O211        O  0.17602994  0.08648616  0.35225096    -0.82200
O212        O  0.16725781  0.08055150  0.38752027    -0.84800
C213        C  0.16830633  0.07418275  0.40300415     1.02900
O214        O  0.17221637  0.05436528  0.40632883    -0.77600
O215        O  0.22531827  0.07575309  0.39837673    -0.77700
C216        C  0.24671314  0.08708276  0.38951962     1.02800
Cr217      Cr  0.21520798  0.06468820  0.35684331     1.93700
Cr218      Cr  0.15910546  0.05415846  0.36859783     1.93200
Cr219      Cr  0.19364288  0.04091026  0.39265909     1.39100
O220        O  0.18945743  0.05337718  0.37268528    -1.22800
O221        O  0.18901440  0.45198521  0.64455810    -0.85100
O222        O  0.15626738  0.46110177  0.66642260    -0.82100
C223        C  0.13771243  0.46604160  0.67103706     0.98400
O224        O  0.11520105  0.45547430  0.66276786    -0.82100
O225        O  0.12183022  0.47981627  0.63065960    -0.84800
C226        C  0.13097227  0.48709348  0.61557967     1.02900
O227        O  0.14240116  0.47586989  0.60791334    -0.77600
O228        O  0.18741855  0.48029187  0.62600660    -0.77700
C229        C  0.20075851  0.47461476  0.63670516     1.02900
O230        O  0.14460844  0.39755373  0.63820099    -0.85100
O231        O  0.11526906  0.40587200  0.66402342    -0.82100
C232        C  0.09159619  0.39268704  0.65791457     0.98400
O233        O  0.08530981  0.40214067  0.64516573    -0.82200
O234        O  0.09144219  0.42749863  0.61402829    -0.84800
C235        C  0.09900848  0.41704938  0.60221798     1.02900
O236        O  0.12266731  0.41998119  0.60260854    -0.77600
O237        O  0.16901091  0.42438499  0.61712541    -0.77700
C238        C  0.15759553  0.40114365  0.62424814     1.02800
Cr239      Cr  0.15016709  0.42983565  0.65194307     1.93700
Cr240      Cr  0.10587490  0.44116140  0.63806346     1.93200
Cr241      Cr  0.15417194  0.44968165  0.61504941     1.39100
O242        O  0.13661715  0.44050668  0.63502053    -1.22800
O243        O  0.18979031  0.23372560  0.53081490    -0.85100
O244        O  0.15683897  0.19574229  0.50708364    -0.82100
C245        C  0.13711056  0.17381591  0.50137856     0.98400
O246        O  0.11408034  0.16318250  0.50890704    -0.82100
O247        O  0.11949019  0.14086853  0.53928202    -0.84800
C248        C  0.12914877  0.14076118  0.55391769     1.02900
O249        O  0.13693709  0.16080513  0.56396395    -0.77600
O250        O  0.18417957  0.20159534  0.54900205    -0.77700
C251        C  0.19871902  0.21979633  0.53812102     1.04100
O252        O  0.14805563  0.24761994  0.53718220    -0.85100
O253        O  0.11833773  0.21377074  0.51030702    -0.82100
C254        C  0.09458148  0.20421639  0.51627698     0.98400
O255        O  0.08648968  0.18670316  0.52820641    -0.82200
O256        O  0.08894857  0.16109964  0.55766256    -0.84800
C257        C  0.09510445  0.17805318  0.56990542     1.02900
O258        O  0.11886025  0.19867558  0.57072933    -0.77600
O259        O  0.16832918  0.24055760  0.55892540    -0.77700
C260        C  0.15963761  0.25473605  0.55169320     1.02800
Cr261      Cr  0.15203758  0.22086163  0.52257487     1.93700
Cr262      Cr  0.10459884  0.16523912  0.53380278     1.93200
Cr263      Cr  0.15097904  0.20003730  0.55909207     1.39100
O264        O  0.13583048  0.19514539  0.53847144    -1.22800
C265        C  0.10585538  0.06765395  0.56582236    -0.01700
C266        C  0.12638247  0.07116706  0.57754282     0.06900
C267        C  0.14927259  0.09703632  0.57979200    -0.07700
C268        C  0.15138762  0.11970436  0.57121274     0.04300
C269        C  0.13006561  0.11665733  0.56027387    -0.14900
C270        C  0.10778884  0.09044088  0.55728456    -0.08300
C271        C  0.12522338  0.04812146  0.58719831     0.05200
C272        C  0.12794771  0.02835022  0.57806344    -0.09400
C273        C  0.12937391  0.00747131  0.58671554     0.00200
C274        C  0.12929184  0.00690589  0.60504792     0.00100
C275        C  0.12555762  0.02627162  0.61414185    -0.12900
C276        C  0.12320129  0.04662719  0.60533884     0.00600
C277        C  0.12329525  0.48459045  0.57763422     0.39900
C278        C  0.11787262  0.06524039  0.61507378     0.36500
C279        C  0.08226487  0.04108215  0.56291446     0.36200
C280        C  0.17583164  0.14577824  0.57377534     0.37000
N281        N  0.12207338  0.46689025  0.56944599    -0.43800
N282        N  0.11324175  0.07993473  0.62284871    -0.44300
N283        N  0.19554088  0.16653047  0.57587887    -0.41600
N284        N  0.06346467  0.01969705  0.56061338    -0.43100
H285        H  0.09134081  0.08793188  0.54893843     0.13100
H286        H  0.16549465  0.09949016  0.58834833     0.09600
H287        H  0.12899438  0.02929380  0.56406773     0.10700
H288        H  0.12446134  0.02553294  0.62812941     0.16500
C289        C  0.18311472  0.36756363  0.59327207    -0.01700
C290        C  0.16206098  0.34008390  0.59374905     0.06900
C291        C  0.14084678  0.33195774  0.60582240    -0.07700
C292        C  0.13974032  0.35108993  0.61683582     0.04300
C293        C  0.15998349  0.37897795  0.61562733    -0.14900
C294        C  0.18187972  0.38666783  0.60408019    -0.08300
C295        C  0.16213659  0.31949185  0.58194434     0.05200
C296        C  0.18305571  0.31323790  0.58343824    -0.09400
C297        C  0.18354060  0.29332551  0.57304164     0.00200
C298        C  0.16253433  0.27903031  0.56081579     0.00100
C299        C  0.14219889  0.28613505  0.55883185    -0.12900
C300        C  0.14176546  0.30609343  0.56931718     0.00600
C301        C  0.20584944  0.28804866  0.57524916     0.39900
C302        C  0.12018946  0.31238243  0.56697273     0.36500
C303        C  0.20575212  0.37688524  0.58139310     0.36200
C304        C  0.11714557  0.34160979  0.62872708     0.37000
N305        N  0.22370922  0.28382279  0.57706945    -0.43800
N306        N  0.10283748  0.31734142  0.56508228    -0.44300
N307        N  0.09910757  0.33392523  0.63832892    -0.41600
N308        N  0.22397112  0.38434349  0.57195395    -0.43100
H309        H  0.19778251  0.40783104  0.60314532     0.13100
H310        H  0.12503838  0.31073649  0.60649228     0.09600
H311        H  0.19905058  0.32382787  0.59309624     0.10700
H312        H  0.12589252  0.27525360  0.54953176     0.16500
C313        C  0.17315133  0.15837720  0.46529889    -0.01700
C314        C  0.15153669  0.13548681  0.45721463     0.06900
C315        C  0.12485816  0.12568141  0.46321419    -0.07700
C316        C  0.11943502  0.13799125  0.47721785     0.04300
C317        C  0.14116222  0.16069744  0.48570304    -0.14900
C318        C  0.16784759  0.17077564  0.47928687    -0.08300
C319        C  0.15636934  0.12036014  0.44321295     0.05200
C320        C  0.15195797  0.09409371  0.44674875    -0.09400
C321        C  0.15590245  0.07875428  0.43403592     0.00200
C322        C  0.16426463  0.08963815  0.41720388     0.00100
C323        C  0.16864254  0.11603911  0.41373730    -0.12900
C324        C  0.16482532  0.13137323  0.42652406     0.00600
C325        C  0.15041016  0.05166771  0.43862720     0.39900
C326        C  0.16917502  0.15810953  0.42210046     0.36500
C327        C  0.20107247  0.16878271  0.45992704     0.36200
C328        C  0.09132562  0.12668007  0.48242833     0.37000
N329        N  0.14599595  0.02997354  0.44235772    -0.43800
N330        N  0.17272947  0.17954347  0.41848940    -0.44300
N331        N  0.06873983  0.11750368  0.48651848    -0.41600
N332        N  0.22342751  0.17705287  0.45560306    -0.43100
H333        H  0.18487355  0.18808352  0.48543859     0.13100
H334        H  0.10815596  0.10807455  0.45698402     0.09600
H335        H  0.14536492  0.08552680  0.45955575     0.10700
H336        H  0.17514825  0.12483833  0.40097949     0.16500
C337        C  0.03723453  0.38965374  0.57233678    -0.01700
C338        C  0.04352910  0.37627213  0.55930168     0.06900
C339        C  0.06815077  0.37600102  0.56044694    -0.07700
C340        C  0.08637730  0.38874438  0.57421078     0.04300
C341        C  0.08009744  0.40220631  0.58742905    -0.14900
C342        C  0.05526952  0.40227317  0.58616233    -0.08300
C343        C  0.02439906  0.36210318  0.54459862     0.05200
C344        C  0.01892436  0.37744657  0.53262729    -0.09400
C345        C  0.49966116  0.36600774  0.51997707     0.00200
C346        C  0.48639613  0.33722981  0.51776902     0.00100
C347        C  0.49339412  0.32211741  0.52905139    -0.12900
C348        C  0.51222615  0.33478733  0.54249099     0.00600
C349        C  0.99650617  0.38204692  0.50696256     0.39900
C350        C  0.51798720  0.31795975  0.55378559     0.36500
C351        C  0.01202726  0.39023459  0.57195751     0.36200
C352        C  0.11124867  0.38747917  0.57426163     0.37000
N353        N  0.99374410  0.39601818  0.49721136    -0.43800
N354        N  0.52267649  0.30447653  0.56280031    -0.44300
N355        N  0.13117810  0.38646403  0.57422319    -0.41600
N356        N  0.49096993  0.39028097  0.57248884    -0.43100
H357        H  0.04985589  0.41240667  0.59596974     0.13100
H358        H  0.07319667  0.36579877  0.55046581     0.09600
H359        H  0.02943053  0.39954596  0.53384927     0.10700
H360        H  0.48380890  0.30012324  0.52756086     0.16500
C361        C  0.04750272  0.41267352  0.44153153    -0.01700
C362        C  0.04800886  0.41501925  0.42342432     0.06900
C363        C  0.02614414  0.39556393  0.41371776    -0.07700
C364        C  0.00379232  0.37369003  0.42176548     0.04300
C365        C  0.00327952  0.37089470  0.43999590    -0.14900
C366        C  0.02516941  0.39074010  0.44969575    -0.08300
C367        C  0.07091599  0.43795187  0.41426671     0.05200
C368        C  0.09096126  0.43380322  0.40658496    -0.09400
C369        C  0.11301103  0.45508809  0.39781290     0.00200
C370        C  0.11488037  0.48098754  0.39642317     0.00100
C371        C  0.09428340  0.48472845  0.40383337    -0.12900
C372        C  0.07253498  0.46354557  0.41279584     0.00600
C373        C  0.14831129  0.96744407  0.41384020     0.39900
C374        C  0.05221813  0.46854489  0.42053285     0.36500
C375        C  0.06986250  0.43237362  0.45189318     0.36200
C376        C  0.98136970  0.35507903  0.41093591     0.37000
N377        N  0.16969663  0.97014074  0.41626896    -0.43800
N378        N  0.03595811  0.47253049  0.42678830    -0.44300
N379        N  0.96341849  0.34020161  0.40226431    -0.41600
N380        N  0.08786074  0.44821168  0.46013922    -0.43100
H381        H  0.02506386  0.38888253  0.46362502     0.13100
H382        H  0.02645698  0.39768223  0.39979446     0.09600
H383        H  0.08947006  0.41394442  0.40760140     0.10700
H384        H  0.09555676  0.50451245  0.40309352     0.16500
C385        C  0.30631166  0.15576683  0.40096882    -0.01700
C386        C  0.31125576  0.15101538  0.41814013     0.06900
C387        C  0.29719411  0.12451736  0.42490556    -0.07700
C388        C  0.27768246  0.10293073  0.41506599     0.04300
C389        C  0.27156936  0.10783018  0.39822198    -0.14900
C390        C  0.28640725  0.13416244  0.39115104    -0.08300
C391        C  0.33262672  0.17274581  0.42890169     0.05200
C392        C  0.32530789  0.18381014  0.44275458    -0.09400
C393        C  0.34535503  0.20397689  0.45339319     0.00200
C394        C  0.37321563  0.21294838  0.45028902     0.00100
C395        C  0.38008562  0.20084386  0.43673546    -0.12900
C396        C  0.36020278  0.18117385  0.42606060     0.00600
C397        C  0.33674956  0.21569675  0.46682787     0.39900
C398        C  0.36853911  0.16983718  0.41221500     0.36500
C399        C  0.32101441  0.18264390  0.39330099     0.36200
C400        C  0.26438963  0.07576782  0.42243525     0.37000
N401        N  0.32965342  0.22498743  0.47755345    -0.43800
N402        N  0.37502994  0.16071000  0.40105579    -0.44300
N403        N  0.25384171  0.05395629  0.42824690    -0.41600
N404        N  0.33280523  0.20409354  0.38702240    -0.43100
H405        H  0.28161732  0.13808927  0.37829186     0.13100
H406        H  0.30169669  0.12067511  0.43787190     0.09600
H407        H  0.30395573  0.17695741  0.44507406     0.10700
H408        H  0.40125150  0.20715591  0.43415687     0.16500
C409        C  0.03567564  0.27140846  0.48360465    -0.01700
C410        C  0.02750841  0.24343513  0.48516074     0.06900
C411        C  0.00182354  0.22368611  0.47912869    -0.07700
C412        C  0.48261302  0.23152150  0.47357501     0.04300
C413        C  0.49112337  0.25941374  0.47080947    -0.14900
C414        C  0.51863674  0.27914683  0.47321078    -0.08300
C415        C  0.04511155  0.23407303  0.49326619     0.05200
C416        C  0.03790924  0.22135809  0.50950935    -0.09400
C417        C  0.05347502  0.21129486  0.51734066     0.00200
C418        C  0.07660945  0.21366398  0.50869867     0.00100
C419        C  0.08362892  0.22647387  0.49240603    -0.12900
C420        C  0.06814251  0.23656950  0.48468802     0.00600
C421        C  0.04565805  0.19947128  0.53438219     0.39900
C422        C  0.07589032  0.24882111  0.46776430     0.36500
C423        C  0.06176780  0.29237820  0.48998869     0.36200
C424        C  0.45487042  0.21014966  0.47043605     0.37000
N425        N  0.03945545  0.19005052  0.54805282    -0.43800
N426        N  0.08211069  0.25862422  0.45419816    -0.44300
N427        N  0.43266880  0.19299687  0.46793190    -0.41600
N428        N  0.08266290  0.30918448  0.49513990    -0.43100
H429        H  0.52524497  0.30060044  0.47125650     0.13100
H430        H  0.99569369  0.20219417  0.48007815     0.09600
H431        H  0.02012158  0.21944072  0.51611370     0.10700
H432        H  0.10122131  0.22846732  0.48552257     0.16500
C433        C  0.25866509  0.23582372  0.50981274    -0.01700
C434        C  0.28031994  0.24592308  0.52174008     0.06900
C435        C  0.27445558  0.24420997  0.53949552    -0.07700
C436        C  0.24756502  0.23379319  0.54535981     0.04300
C437        C  0.22627823  0.22552481  0.53331174    -0.14900
C438        C  0.23204801  0.22616889  0.51565386    -0.08300
C439        C  0.30913138  0.25911770  0.51578330     0.05200
C440        C  0.31929947  0.28211805  0.50492394    -0.09400
C441        C  0.34571595  0.29408591  0.49801395     0.00200
C442        C  0.36272726  0.28317192  0.50217739     0.00100
C443        C  0.35272263  0.26081493  0.51368020    -0.12900
C444        C  0.32623181  0.24868347  0.52032854     0.00600
C445        C  0.35450115  0.31729687  0.48665119     0.39900
C446        C  0.31660077  0.22463838  0.53103745     0.36500
C447        C  0.26324015  0.23515905  0.49151973     0.36200
C448        C  0.24258249  0.23336786  0.56364125     0.37000
N449        N  0.36143902  0.33587720  0.47753498    -0.43800
N450        N  0.30885926  0.20534469  0.53959575    -0.44300
N451        N  0.23862923  0.23297944  0.57831529    -0.41600
N452        N  0.26693873  0.23457478  0.47688009    -0.43100
H453        H  0.21571934  0.21967805  0.50635583     0.13100
H454        H  0.29098607  0.25177120  0.54874044     0.09600
H455        H  0.30629805  0.29046582  0.50159606     0.10700
H456        H  0.36522992  0.25192076  0.51703448     0.16500
C457        C  0.02086254  0.14709921  0.64057204    -0.01700
C458        C  0.01788922  0.15918809  0.62544844     0.06900
C459        C  0.49458961  0.16471947  0.62398627    -0.07700
C460        C  0.47613140  0.15794696  0.63784594     0.04300
C461        C  0.47811956  0.14383148  0.65247700    -0.14900
C462        C  0.00218378  0.14017499  0.65417474    -0.08300
C463        C  0.03655218  0.16492715  0.61041454     0.05200
C464        C  0.03342081  0.14297394  0.60033354    -0.09400
C465        C  0.05185313  0.14673705  0.58704798     0.00200
C466        C  0.07439362  0.17314695  0.58360353     0.00100
C467        C  0.07721153  0.19520131  0.59364224    -0.12900
C468        C  0.05850595  0.19132340  0.60684717     0.00600
C469        C  0.04755291  0.12278249  0.57772108     0.39900
C470        C  0.06252472  0.21455807  0.61686336     0.36500
C471        C  0.04344458  0.14221075  0.64254925     0.36200
C472        C  0.45578779  0.16616686  0.63668720     0.37000
N473        N  0.04404672  0.10355022  0.57026505    -0.43800
N474        N  0.06566024  0.23316063  0.62489880    -0.44300
N475        N  0.43956434  0.17287602  0.63572503    -0.41600
N476        N  0.06171005  0.13855461  0.64409870    -0.43100
H477        H  0.00503291  0.13081004  0.66561551     0.13100
H478        H  0.49283855  0.17535305  0.61279988     0.09600
H479        H  0.01664425  0.12253488  0.60312742     0.10700
H480        H  0.09419321  0.21569751  0.59118219     0.16500
C481        C  0.06452630  0.33219686  0.68819340    -0.01700
C482        C  0.03953906  0.31360881  0.68059584     0.06900
C483        C  0.03032283  0.32159070  0.66612606    -0.07700
C484        C  0.04617476  0.34760569  0.65878478     0.04300
C485        C  0.07196375  0.36604110  0.66597509    -0.14900
C486        C  0.08037665  0.35808750  0.68094426    -0.08300
C487        C  0.02382677  0.28509894  0.68681837     0.05200
C488        C  0.00994405  0.27937905  0.70265185    -0.09400
C489        C  0.99440344  0.25238373  0.70861968     0.00200
C490        C  0.49279937  0.23049586  0.69765012     0.00100
C491        C  0.50662083  0.23661475  0.68172158    -0.12900
C492        C  0.02319014  0.26368734  0.67721529     0.00600
C493        C  0.97926193  0.24743669  0.72448729     0.39900
C494        C  0.53596795  0.26849536  0.65948649     0.36500
C495        C  0.07496371  0.32462432  0.70291231     0.36200
C496        C  0.03561881  0.35429868  0.64373760     0.37000
N497        N  0.96716442  0.24357368  0.73722107    -0.43800
N498        N  0.54715415  0.27246528  0.64638194    -0.44300
N499        N  0.02699092  0.35956124  0.63171769    -0.41600
N500        N  0.08330605  0.31848021  0.71467928    -0.43100
H501        H  0.09990103  0.37184565  0.68683552     0.13100
H502        H  0.51072391  0.30829196  0.66030882     0.09600
H503        H  0.01079629  0.29599705  0.71014193     0.10700
H504        H  0.50497457  0.22022021  0.67359708     0.16500
C505        C  0.26709143  0.03928043  0.64179226    -0.01700
C506        C  0.28417785  0.02954537  0.64802035     0.06900
C507        C  0.27449091  0.00135039  0.64803691    -0.07700
C508        C  0.24796929  0.98285566  0.64274089     0.04300
C509        C  0.23015754  0.49368543  0.64029524    -0.14900
C510        C  0.24086322  0.52204521  0.63880689    -0.08300
C511        C  0.31097952  0.04788287  0.65624190     0.05200
C512        C  0.31161559  0.06346201  0.67047005    -0.09400
C513        C  0.33574485  0.07950114  0.67957401     0.00200
C514        C  0.36009983  0.08008228  0.67455865     0.00100
C515        C  0.35940262  0.06416865  0.66043786    -0.12900
C516        C  0.33517025  0.04821409  0.65125841     0.00600
C517        C  0.33448902  0.09430581  0.69439415     0.39900
C518        C  0.33572207  0.03270553  0.63662488     0.36500
C519        C  0.27638892  0.06815846  0.64076704     0.36200
C520        C  0.23963101  0.95412800  0.64256567     0.37000
N521        N  0.33328830  0.10603580  0.70627623    -0.43800
N522        N  0.33474857  0.52157413  0.62673561    -0.44300
N523        N  0.23301025  0.93114166  0.64235097    -0.41600
N524        N  0.28373374  0.09128238  0.63993810    -0.43100
H525        H  0.22809363  0.52982696  0.63393506     0.13100
H526        H  0.28740181  0.99364273  0.65277968     0.09600
H527        H  0.29293801  0.06261119  0.67474481     0.10700
H528        H  0.37795566  0.06464957  0.65630750     0.16500
C529        C  0.14268957  0.03824862  0.74079043    -0.01700
C530        C  0.16229288  0.04285827  0.72797596     0.06900
C531        C  0.18829726  0.06621683  0.72936563    -0.07700
C532        C  0.19500061  0.08461937  0.74318103     0.04300
C533        C  0.17531668  0.07998359  0.75610904    -0.14900
C534        C  0.14929140  0.05655831  0.75459089    -0.08300
C535        C  0.15617774  0.02351331  0.71316333     0.05200
C536        C  0.13018927  0.50794828  0.70790251    -0.09400
C537        C  0.12337778  0.49020292  0.69363894     0.00200
C538        C  0.14289665  0.48417182  0.68652690     0.00100
C539        C  0.16577814  0.99307184  0.69597448    -0.12900
C540        C  0.17186271  0.01084466  0.71002381     0.00600
C541        C  0.09611961  0.47846402  0.68678294     0.39900
C542        C  0.19384614  0.01503427  0.72136485     0.36500
C543        C  0.12308227  0.50567954  0.74798525     0.36200
C544        C  0.22232573  0.10785871  0.74364607     0.37000
N545        N  0.07418829  0.46901867  0.68139627    -0.43800
N546        N  0.21144849  0.01836314  0.73045658    -0.44300
N547        N  0.24424346  0.12644517  0.74395673    -0.41600
N548        N  0.10393657  0.48435579  0.74981361    -0.43100
H549        H  0.13375694  0.05249821  0.76416963     0.13100
H550        H  0.20347282  0.07015031  0.71954147     0.09600
H551        H  0.11522365  0.51282071  0.71286997     0.10700
H552        H  0.17815510  0.98362160  0.69392228     0.16500
C553        C  0.02904256  0.11229094  0.74763431    -0.01700
C554        C  0.05402873  0.13668586  0.74996987     0.06900
C555        C  0.05792263  0.16086027  0.74225770    -0.07700
C556        C  0.03713138  0.16117412  0.73262040     0.04300
C557        C  0.01191234  0.13670607  0.73030297    -0.14900
C558        C  0.00833229  0.11244658  0.73784409    -0.08300
C559        C  0.07713354  0.13695968  0.75920379     0.05200
C560        C  0.09925355  0.14007530  0.74943711    -0.09400
C561        C  0.12121248  0.13948226  0.75719984     0.00200
C562        C  0.12141191  0.13572991  0.77536905     0.00100
C563        C  0.09920118  0.13291348  0.78516213    -0.12900
C564        C  0.07726270  0.13368109  0.77724097     0.00600
C565        C  0.14272108  0.14208187  0.74588307     0.39900
C566        C  0.05537362  0.13166046  0.78785767     0.36500
C567        C  0.02438243  0.08677162  0.75493968     0.36200
C568        C  0.54330782  0.18657472  0.72443103     0.37000
N569        N  0.15990941  0.14424408  0.73676735    -0.43800
N570        N  0.03784166  0.13015810  0.79634501    -0.44300
N571        N  0.54747262  0.20736993  0.71890117    -0.41600
N572        N  0.02067778  0.06634382  0.76082264    -0.43100
H573        H  0.98905522  0.09358796  0.73642361     0.13100
H574        H  0.07731972  0.17956169  0.74379504     0.09600
H575        H  0.09913143  0.14257526  0.73555737     0.10700
H576        H  0.09905047  0.13035500  0.79903257     0.16500
C577        C  0.34408282  0.16679025  0.73599290    -0.01700
C578        C  0.34724796  0.16941369  0.75407734     0.06900
C579        C  0.37129983  0.17322624  0.76157252    -0.07700
C580        C  0.39160836  0.17300972  0.75147450     0.04300
C581        C  0.38772163  0.16825518  0.73345064    -0.14900
C582        C  0.36436852  0.16632199  0.72578331    -0.08300
C583        C  0.32552157  0.16771790  0.76551966     0.05200
C584        C  0.30887009  0.14329010  0.77449435    -0.09400
C585        C  0.28703715  0.14036025  0.78464666     0.00200
C586        C  0.28164316  0.16215571  0.78575918     0.00100
C587        C  0.29930156  0.18704851  0.77746528    -0.12900
C588        C  0.32126448  0.19003391  0.76754099     0.00600
C589        C  0.26948896  0.11429417  0.79277359     0.39900
C590        C  0.33914294  0.21606493  0.75947239     0.36500
C591        C  0.31974295  0.16351201  0.72779494     0.36200
C592        C  0.41626767  0.17769519  0.76002470     0.37000
N593        N  0.25542028  0.09338218  0.79926422    -0.43800
N594        N  0.35365724  0.23692080  0.75306209    -0.44300
N595        N  0.43602847  0.18141915  0.76682575    -0.41600
N596        N  0.30023381  0.16096787  0.72126291    -0.43100
H597        H  0.36131870  0.16307625  0.71199589     0.13100
H598        H  0.37403349  0.17602100  0.77542619     0.09600
H599        H  0.31248490  0.12625389  0.77314756     0.10700
H600        H  0.29554263  0.20404433  0.77842854     0.16500
C601        C  0.38100889  0.45666154  0.10354083    -0.01700
C602        C  0.36162496  0.44455677  0.09022575     0.06900
C603        C  0.34250044  0.45294372  0.08753056    -0.07700
C604        C  0.34242475  0.47323539  0.09775609     0.04300
C605        C  0.36170590  0.48540147  0.11128395    -0.14900
C606        C  0.38102856  0.47704922  0.11387609    -0.08300
C607        C  0.35961798  0.42178686  0.07966848     0.05200
C608        C  0.33700097  0.39570808  0.08214210    -0.09400
C609        C  0.33484902  0.37310148  0.07340048     0.00200
C610        C  0.35584596  0.37638634  0.06199812     0.00100
C611        C  0.37752648  0.40289374  0.05859294    -0.12900
C612        C  0.37949517  0.42556487  0.06730251     0.00600
C613        C  0.31077880  0.34683554  0.07637521     0.39900
C614        C  0.40202330  0.45244666  0.06341707     0.36500
C615        C  0.40056082  0.44796419  0.10707137     0.36200
C616        C  0.32038065  0.98366747  0.08964180     0.37000
N617        N  0.29142121  0.32586353  0.07877075    -0.43800
N618        N  0.42000667  0.47402235  0.06026421    -0.44300
N619        N  0.30537421  0.99116699  0.08599743    -0.41600
N620        N  0.41619157  0.44092026  0.10985743    -0.43100
H621        H  0.39605132  0.48632953  0.12404847     0.13100
H622        H  0.32762348  0.44364361  0.07726508     0.09600
H623        H  0.32124255  0.39294123  0.09123173     0.10700
H624        H  0.39355874  0.40580150  0.04970202     0.16500
C625        C  0.33851660  0.15716998  0.10741740    -0.01700
C626        C  0.32656583  0.15034735  0.09090145     0.06900
C627        C  0.31487593  0.12349670  0.08496008    -0.07700
C628        C  0.31620455  0.10362409  0.09492420     0.04300
C629        C  0.32859702  0.11047381  0.11140369    -0.14900
C630        C  0.33898864  0.13704838  0.11771699    -0.08300
C631        C  0.32760281  0.17142364  0.07924563     0.05200
C632        C  0.35171144  0.18790252  0.07008305    -0.09400
C633        C  0.35462639  0.20996736  0.06024009     0.00200
C634        C  0.33303739  0.21565727  0.05951128     0.00100
C635        C  0.30846925  0.19829680  0.06818040    -0.12900
C636        C  0.30557048  0.17617308  0.07792876     0.00600
C637        C  0.38067239  0.22748796  0.05224712     0.39900
C638        C  0.28023486  0.15911880  0.08692218     0.36500
C639        C  0.35180545  0.18500997  0.11353315     0.36200
C640        C  0.30602571  0.07673629  0.08756507     0.37000
N641        N  0.40181852  0.24128968  0.04605134    -0.43800
N642        N  0.25996292  0.14532241  0.09412748    -0.44300
N643        N  0.29807728  0.05525759  0.08165799    -0.41600
N644        N  0.36267322  0.20742707  0.11825998    -0.43100
H645        H  0.34925402  0.14255020  0.13010636     0.13100
H646        H  0.30584658  0.11840611  0.07218852     0.09600
H647        H  0.36862858  0.18406086  0.07115152     0.10700
H648        H  0.29168696  0.20239635  0.06764312     0.16500
C649        C  0.42320653  0.32218656  0.11643012    -0.01700
C650        C  0.45126599  0.33334777  0.11300406     0.06900
C651        C  0.46055370  0.33947102  0.09591574    -0.07700
C652        C  0.44239815  0.33469829  0.08228915     0.04300
C653        C  0.41417536  0.32336534  0.08563729    -0.14900
C654        C  0.40492585  0.31706205  0.10280072    -0.08300
C655        C  0.47138180  0.33930697  0.12708075     0.05200
C656        C  0.47417423  0.31798608  0.13418134    -0.09400
C657        C  0.99239352  0.32368378  0.14734297     0.00200
C658        C  0.01054007  0.35083965  0.15287033     0.00100
C659        C  0.50693048  0.37111947  0.14645292    -0.12900
C660        C  0.48788227  0.36603057  0.13336178     0.00600
C661        C  0.99210475  0.30030375  0.15511445     0.39900
C662        C  0.48510950  0.38846662  0.12681771     0.36500
C663        C  0.41292010  0.31667132  0.13389133     0.36200
C664        C  0.45322888  0.34086597  0.06496005     0.37000
N665        N  0.99192164  0.28152883  0.16125474    -0.43800
N666        N  0.48274743  0.40638715  0.12160839    -0.44300
N667        N  0.46191765  0.34581376  0.05107306    -0.41600
N668        N  0.40477124  0.31244558  0.14791320    -0.43100
H669        H  0.38342353  0.30866762  0.10563027     0.13100
H670        H  0.48213734  0.34804372  0.09322712     0.09600
H671        H  0.95965738  0.29797259  0.13004160     0.10700
H672        H  0.51930985  0.39187162  0.15109493     0.16500
C673        C  0.99969043  0.22660828  0.19013662    -0.01700
C674        C  0.47128622  0.21509549  0.18845984     0.06900
C675        C  0.45972593  0.23078867  0.19396232    -0.07700
C676        C  0.47612341  0.25743419  0.20021151     0.04300
C677        C  0.00446992  0.26935689  0.20101597    -0.14900
C678        C  0.01589424  0.25315921  0.19633574    -0.08300
C679        C  0.45358896  0.18795162  0.18047108     0.05200
C680        C  0.45115914  0.16439172  0.18833439    -0.09400
C681        C  0.43453298  0.13845428  0.18115360     0.00200
C682        C  0.42004028  0.13590873  0.16582065     0.00100
C683        C  0.42234902  0.15945460  0.15807887    -0.12900
C684        C  0.43911360  0.18531935  0.16511701     0.00600
C685        C  0.43114297  0.11474551  0.19041314     0.39900
C686        C  0.44131528  0.20878222  0.15615101     0.36500
C687        C  0.01291309  0.21163036  0.18469456     0.36200
C688        C  0.46327924  0.27325049  0.20445804     0.37000
N689        N  0.42821901  0.09574552  0.19794089    -0.43800
N690        N  0.44281711  0.22735745  0.14882343    -0.44300
N691        N  0.45286662  0.28584974  0.20778530    -0.41600
N692        N  0.02356460  0.19965202  0.18040612    -0.43100
H693        H  0.03782196  0.26163907  0.19695294     0.13100
H694        H  0.43785771  0.22243310  0.19289007     0.09600
H695        H  0.46190370  0.16626151  0.20027587     0.10700
H696        H  0.41094123  0.15762069  0.14644289     0.16500
C697        C  0.16556471  0.43666896  0.15262640    -0.01700
C698        C  0.18396443  0.46084009  0.16133976     0.06900
C699        C  0.17466631  0.46907957  0.17569073    -0.07700
C700        C  0.14816762  0.45273181  0.18216054     0.04300
C701        C  0.13009767  0.42777746  0.17389519    -0.14900
C702        C  0.13897812  0.42064385  0.15882644    -0.08300
C703        C  0.21328501  0.47681808  0.15632804     0.05200
C704        C  0.21912982  0.99196131  0.14097567    -0.09400
C705        C  0.24619862  0.00780163  0.13540752     0.00200
C706        C  0.26705753  0.00551285  0.14390033     0.00100
C707        C  0.26142334  0.49691269  0.16315553    -0.12900
C708        C  0.23412163  0.48185299  0.16822669     0.00600
C709        C  0.25194831  0.02751710  0.12188371     0.39900
C710        C  0.22812972  0.47127838  0.18564422     0.36500
C711        C  0.17379922  0.42691133  0.13787358     0.36200
C712        C  0.14085273  0.46149167  0.19777577     0.37000
N713        N  0.25587911  0.04327501  0.11111758    -0.43800
N714        N  0.22342135  0.46287431  0.19960873    -0.44300
N715        N  0.13511676  0.46853504  0.21032750    -0.41600
N716        N  0.18033483  0.41910727  0.12601781    -0.43100
H717        H  0.12540595  0.40181100  0.15212744     0.13100
H718        H  0.18855921  0.48793692  0.18226273     0.09600
H719        H  0.20320709  0.99421317  0.13474558     0.10700
H720        H  0.27706984  0.50084637  0.17262817     0.16500
C721        C  0.11638495  0.43568118  0.27579657    -0.01700
C722        C  0.11514045  0.45994575  0.27715740     0.06900
C723        C  0.10184381  0.46617772  0.26417846    -0.07700
C724        C  0.08950741  0.44856727  0.25014085     0.04300
C725        C  0.09029341  0.42386582  0.24886427    -0.14900
C726        C  0.10410203  0.41803831  0.26181776    -0.08300
C727        C  0.12790885  0.47919983  0.29188706     0.05200
C728        C  0.15618612  0.49167527  0.29434363    -0.09400
C729        C  0.16685928  0.01953626  0.30495436     0.00200
C730        C  0.15181885  0.01573211  0.32039845     0.00100
C731        C  0.12433651  0.99457172  0.32087478    -0.12900
C732        C  0.11236573  0.48515004  0.30350877     0.00600
C733        C  0.19506510  0.04060471  0.30318768     0.39900
C734        C  0.08325279  0.47327703  0.30147140     0.36500
C735        C  0.12953469  0.42798420  0.28882127     0.36200
C736        C  0.07622767  0.45662741  0.23742652     0.37000
N737        N  0.21771312  0.05740076  0.30174352    -0.43800
N738        N  0.05995397  0.46393234  0.29978050    -0.44300
N739        N  0.06567234  0.46328242  0.22729151    -0.41600
N740        N  0.14008771  0.42172822  0.29919534    -0.43100
H741        H  0.10512872  0.39939361  0.26120098     0.13100
H742        H  0.10115193  0.48499182  0.26501882     0.09600
H743        H  0.16830539  0.48743884  0.28534971     0.10700
H744        H  0.11220195  0.99124314  0.33240754     0.16500
C745        C  0.32665201  0.32552731  0.38076832    -0.01700
C746        C  0.35476486  0.33591014  0.38336904     0.06900
C747        C  0.37335926  0.35491024  0.37156144    -0.07700
C748        C  0.36448181  0.36354797  0.35722182     0.04300
C749        C  0.33618982  0.35317320  0.35443878    -0.14900
C750        C  0.31762357  0.33422050  0.36648124    -0.08300
C751        C  0.36555369  0.32781097  0.39843470     0.05200
C752        C  0.36675049  0.30361338  0.39776678    -0.09400
C753        C  0.37980820  0.29703666  0.41080823     0.00200
C754        C  0.39198894  0.31494439  0.42503662     0.00100
C755        C  0.38948154  0.33853409  0.42592817    -0.12900
C756        C  0.37668157  0.34510886  0.41280472     0.00600
C757        C  0.38110095  0.27228701  0.40879560     0.39900
C758        C  0.37583333  0.37016975  0.41411085     0.36500
C759        C  0.30675011  0.30608552  0.39266323     0.36200
C760        C  0.38510833  0.38339010  0.34583813     0.37000
N761        N  0.38225840  0.25252034  0.40716348    -0.43800
N762        N  0.37522148  0.39029905  0.41511526    -0.44300
N763        N  0.40177150  0.39927387  0.33676743    -0.41600
N764        N  0.29077763  0.29050615  0.40219902    -0.43100
H765        H  0.29588689  0.32580193  0.36463738     0.13100
H766        H  0.39503895  0.36306919  0.37359302     0.09600
H767        H  0.35820781  0.29023560  0.38669866     0.10700
H768        H  0.39824922  0.35247688  0.43670527     0.16500
C769        C  0.34540383  0.47257432  0.25133608    -0.01700
C770        C  0.33939442  0.46517133  0.23386096     0.06900
C771        C  0.32764399  0.43752308  0.22937516    -0.07700
C772        C  0.32198594  0.41731213  0.24187711     0.04300
C773        C  0.32794745  0.42454957  0.25953957    -0.14900
C774        C  0.33945338  0.45239703  0.26395361    -0.08300
C775        C  0.34715926  0.48591218  0.21979666     0.05200
C776        C  0.36963784  0.49157392  0.20937792    -0.09400
C777        C  0.37188588  0.00149633  0.18993220     0.00200
C778        C  0.35916507  0.01749082  0.18754210     0.00100
C779        C  0.34018730  0.01559226  0.20004829    -0.12900
C780        C  0.33203778  0.49900983  0.21608104     0.00600
C781        C  0.39247465  0.00297045  0.17824849     0.39900
C782        C  0.30854323  0.49369657  0.22629712     0.36500
C783        C  0.35882807  0.50088584  0.25650675     0.36200
C784        C  0.31023499  0.38944720  0.23597094     0.37000
N785        N  0.40903832  0.00411312  0.16895757    -0.43800
N786        N  0.28967094  0.48949413  0.23443121    -0.44300
N787        N  0.30094984  0.36720258  0.23108660    -0.41600
N788        N  0.38404353  0.02383946  0.25337590    -0.43100
H789        H  0.34449769  0.45863758  0.27728678     0.13100
H790        H  0.32324514  0.43174804  0.21591844     0.09600
H791        H  0.38153010  0.48182780  0.21228418     0.10700
H792        H  0.33004361  0.02743509  0.19849559     0.16500
C793        C  0.41975422  0.38345940  0.26469704    -0.01700
C794        C  0.41493911  0.35955985  0.25598391     0.06900
C795        C  0.39030438  0.33522421  0.25865247    -0.07700
C796        C  0.37007552  0.33447079  0.26930912     0.04300
C797        C  0.37399807  0.35886422  0.27715571    -0.14900
C798        C  0.39922585  0.38302320  0.27497605    -0.08300
C799        C  0.43608592  0.35858153  0.24529521     0.05200
C800        C  0.44461062  0.34014794  0.25011339    -0.09400
C801        C  0.46541296  0.33913095  0.24118760     0.00200
C802        C  0.47884143  0.35758083  0.22743744     0.00100
C803        C  0.46901887  0.37470760  0.22180142    -0.12900
C804        C  0.44750117  0.37507656  0.23050238     0.00600
C805        C  0.47239087  0.31880677  0.24643663     0.39900
C806        C  0.43736718  0.39228102  0.22397660     0.36500
C807        C  0.44576532  0.40843498  0.26369470     0.36200
C808        C  0.34577147  0.30822408  0.27186955     0.37000
N809        N  0.47785580  0.30243244  0.25059286    -0.43800
N810        N  0.42919664  0.40601577  0.21871840    -0.44300
N811        N  0.32644687  0.28709938  0.27393282    -0.41600
N812        N  0.46659508  0.42845880  0.26291147    -0.43100
H813        H  0.40290675  0.40178456  0.28114136     0.13100
H814        H  0.38693605  0.31661140  0.25240564     0.09600
H815        H  0.43522060  0.32674356  0.26111533     0.10700
H816        H  0.47875310  0.38850305  0.21102337     0.16500
C817        C  0.12844855  0.31914688  0.24966399    -0.01700
C818        C  0.15646551  0.33672031  0.24691405     0.06900
C819        C  0.16512970  0.35545304  0.23314935    -0.07700
C820        C  0.14616815  0.35762799  0.22254730     0.04300
C821        C  0.11793276  0.34068698  0.22572033    -0.14900
C822        C  0.10957880  0.32119119  0.23913478    -0.08300
C823        C  0.17701361  0.33511912  0.25789759     0.05200
C824        C  0.19108196  0.32276788  0.25110947    -0.09400
C825        C  0.21155841  0.32183721  0.26060426     0.00200
C826        C  0.21819313  0.33333458  0.27732492     0.00100
C827        C  0.20319170  0.34457989  0.28446571    -0.12900
C828        C  0.18277592  0.34570042  0.27482759     0.00600
C829        C  0.22574773  0.30931402  0.25272735     0.39900
C830        C  0.16892247  0.35893123  0.28218765     0.36500
C831        C  0.11855030  0.29874361  0.26316908     0.36200
C832        C  0.15632466  0.37784307  0.20894750     0.37000
N833        N  0.23708590  0.29936956  0.24626158    -0.43800
N834        N  0.15784825  0.36959402  0.28805055    -0.44300
N835        N  0.16456856  0.39402999  0.19803055    -0.41600
N836        N  0.11051945  0.28235758  0.27396236    -0.43100
H837        H  0.08805000  0.30755665  0.24164936     0.13100
H838        H  0.18680849  0.36868646  0.23085957     0.09600
H839        H  0.18633276  0.31423580  0.23820779     0.10700
H840        H  0.20843744  0.35383444  0.29715898     0.16500
C841        C  0.25983626  0.23403621  0.33184296    -0.01700
C842        C  0.24196628  0.21225197  0.32121953     0.06900
C843        C  0.23581854  0.21778465  0.30470560    -0.07700
C844        C  0.24619365  0.24483505  0.29899228     0.04300
C845        C  0.26271674  0.26684086  0.31009316    -0.14900
C846        C  0.26991354  0.26093268  0.32628387    -0.08300
C847        C  0.22969184  0.18363059  0.32728297     0.05200
C848        C  0.20600594  0.17245069  0.33751519    -0.09400
C849        C  0.19537528  0.14634865  0.34488973     0.00200
C850        C  0.20883452  0.13133755  0.34216041     0.00100
C851        C  0.23210801  0.14238378  0.33153485    -0.12900
C852        C  0.24251039  0.16822943  0.32407494     0.00600
C853        C  0.17172705  0.13616583  0.35595485     0.39900
C854        C  0.26682274  0.17887267  0.31359330     0.36500
C855        C  0.26797458  0.22927106  0.34856411     0.36200
C856        C  0.23870401  0.24912072  0.28199816     0.37000
N857        N  0.15277970  0.12797380  0.36483593    -0.43800
N858        N  0.28629667  0.18732586  0.30518643    -0.44300
N859        N  0.23257558  0.25208894  0.26827795    -0.41600
N860        N  0.27463327  0.22551754  0.36192448    -0.43100
H861        H  0.28317196  0.27745377  0.33484503     0.13100
H862        H  0.22253225  0.20091109  0.29638470     0.09600
H863        H  0.19627499  0.18443929  0.34009088     0.10700
H864        H  0.24246424  0.13090372  0.32923993     0.16500
C865        C  0.29314364  0.46420358  0.34347996    -0.01700
C866        C  0.26837889  0.45284031  0.35282552     0.06900
C867        C  0.25316499  0.42447061  0.35515584    -0.07700
C868        C  0.26117030  0.40725906  0.34745090     0.04300
C869        C  0.28471725  0.41836992  0.33688767    -0.14900
C870        C  0.30115156  0.44690322  0.33561838    -0.08300
C871        C  0.25571631  0.46923470  0.35819084     0.05200
C872        C  0.23123750  0.46359393  0.35016165    -0.09400
C873        C  0.21818008  0.47826038  0.35436394     0.00200
C874        C  0.22869632  0.99935753  0.36478112     0.00100
C875        C  0.24633201  0.99704037  0.37658053    -0.12900
C876        C  0.25927996  0.98211808  0.37236107     0.00600
C877        C  0.19264702  0.47100041  0.34599265     0.39900
C878        C  0.27744473  0.98035199  0.38467398     0.36500
C879        C  0.30995815  0.49335255  0.34108230     0.36200
C880        C  0.24492505  0.37824467  0.35076333     0.37000
N881        N  0.17208572  0.46501334  0.33938577    -0.43800
N882        N  0.29195676  0.97876998  0.39451630    -0.44300
N883        N  0.23201747  0.35501989  0.35348073    -0.41600
N884        N  0.32362960  0.51673091  0.33928151    -0.43100
H885        H  0.31956242  0.45564450  0.32784117     0.13100
H886        H  0.23441799  0.41568250  0.36260313     0.09600
H887        H  0.22239447  0.44773772  0.34042794     0.10700
H888        H  0.25073239  0.00760707  0.38883635     0.16500
C889        C  0.38327349  0.01575422  0.80484798    -0.01700
C890        C  0.36718328  0.01601415  0.79101691     0.06900
C891        C  0.33918485  0.99674348  0.79103988    -0.07700
C892        C  0.32562517  0.48330783  0.80651961     0.04300
C893        C  0.34155302  0.48093246  0.81981894    -0.14900
C894        C  0.37014159  0.49726137  0.81870124    -0.08300
C895        C  0.37916099  0.03598010  0.77637746     0.05200
C896        C  0.37671418  0.02622478  0.75943849    -0.09400
C897        C  0.38832683  0.04424576  0.74539580     0.00200
C898        C  0.40327317  0.07290237  0.74816984     0.00100
C899        C  0.40487714  0.08255645  0.76510650    -0.12900
C900        C  0.39269248  0.06454143  0.77903104     0.00600
C901        C  0.38487336  0.03254142  0.72840289     0.39900
C902        C  0.39362194  0.07594525  0.79584500     0.36500
C903        C  0.41255693  0.03329571  0.80483669     0.36200
C904        C  0.29618325  0.46806302  0.80683917     0.37000
N905        N  0.38192634  0.02310780  0.71478339    -0.43800
N906        N  0.39435862  0.08513811  0.80929930    -0.44300
N907        N  0.27257632  0.45600863  0.80706650    -0.41600
N908        N  0.43601538  0.04735809  0.80479912    -0.43100
H909        H  0.38287744  0.49575516  0.82859594     0.13100
H910        H  0.32671713  0.99635176  0.78029761     0.09600
H911        H  0.36592199  0.00434024  0.75719377     0.10700
H912        H  0.41546775  0.10439356  0.76751475     0.16500
C913        C  0.22998578  0.00732502  0.86752524    -0.01700
C914        C  0.23920732  0.02462467  0.85293288     0.06900
C915        C  0.26614588  0.53244673  0.84729367    -0.07700
C916        C  0.27847684  0.51714575  0.85165702     0.04300
C917        C  0.26746589  0.49764552  0.86509654    -0.14900
C918        C  0.24335134  0.99311031  0.87251102    -0.08300
C919        C  0.22695898  0.04130702  0.84736553     0.05200
C920        C  0.24332685  0.06971841  0.84825060    -0.09400
C921        C  0.23454046  0.08690893  0.84150690     0.00200
C922        C  0.20845353  0.07571135  0.83368136     0.00100
C923        C  0.19189783  0.04710790  0.83287710    -0.12900
C924        C  0.20092364  0.02988317  0.83968556     0.00600
C925        C  0.25365648  0.11595770  0.84201568     0.39900
C926        C  0.19014719  0.50471964  0.83773635     0.36500
C927        C  0.20706597  0.00398465  0.87760971     0.36200
C928        C  0.30261766  0.52210623  0.84227935     0.37000
N929        N  0.26916088  0.13916616  0.84244376    -0.43800
N930        N  0.17761172  0.48146530  0.83511715    -0.44300
N931        N  0.32200975  0.52619149  0.83479956    -0.41600
N932        N  0.18863590  0.00117254  0.88569901    -0.43100
H933        H  0.23571639  0.97924351  0.88343448     0.13100
H934        H  0.27458231  0.54728002  0.83689539     0.09600
H935        H  0.26354027  0.07854902  0.85388582     0.10700
H936        H  0.17193553  0.03819826  0.82691400     0.16500
C937        C  0.24952704  0.31439499  0.84210908    -0.01700
C938        C  0.26255562  0.31126328  0.82750944     0.06900
C939        C  0.28556857  0.33411506  0.82055606    -0.07700
C940        C  0.29590842  0.35991024  0.82804455     0.04300
C941        C  0.28276569  0.36307652  0.84261576    -0.14900
C942        C  0.25958092  0.34020225  0.84943666    -0.08300
C943        C  0.25357174  0.28403912  0.82000995     0.05200
C944        C  0.22716579  0.26874773  0.81316704    -0.09400
C945        C  0.21742023  0.24197941  0.80731505     0.00200
C946        C  0.23455803  0.23048379  0.80804083     0.00100
C947        C  0.26131710  0.24637059  0.81427433    -0.12900
C948        C  0.27079366  0.27274446  0.82038966     0.00600
C949        C  0.18937239  0.22632828  0.80178740     0.39900
C950        C  0.29771579  0.28717021  0.82792558     0.36500
C951        C  0.22637470  0.29136992  0.85013136     0.36200
C952        C  0.31933013  0.38278932  0.82014070     0.37000
N953        N  0.16684198  0.21378819  0.79744964    -0.43800
N954        N  0.31923832  0.29871766  0.83400344    -0.44300
N955        N  0.33810513  0.40109716  0.81379180    -0.41600
N956        N  0.20782792  0.27296774  0.85658970    -0.43100
H957        H  0.24941613  0.34245493  0.86066947     0.13100
H958        H  0.29555772  0.33169100  0.80929635     0.09600
H959        H  0.21390391  0.27746999  0.81291231     0.10700
H960        H  0.27472545  0.23782363  0.81491700     0.16500
C961        C  0.33820804  0.40237136  0.94696611    -0.01700
C962        C  0.33470707  0.37604816  0.94492436     0.06900
C963        C  0.32759292  0.36356625  0.92867380    -0.07700
C964        C  0.32421839  0.37705210  0.91443925     0.04300
C965        C  0.32824917  0.40381555  0.91633334    -0.14900
C966        C  0.33502451  0.41596531  0.93279803    -0.08300
C967        C  0.33903246  0.36158008  0.95956799     0.05200
C968        C  0.31740636  0.34586474  0.97087948    -0.09400
C969        C  0.32111175  0.33287681  0.98523633     0.00200
C970        C  0.34685321  0.33519737  0.98834026     0.00100
C971        C  0.36851070  0.35118294  0.97700384    -0.12900
C972        C  0.36479635  0.36435487  0.96277037     0.00600
C973        C  0.29867768  0.31902502  0.99716996     0.39900
C974        C  0.38782133  0.38112603  0.95177741     0.36500
C975        C  0.34528802  0.41589768  0.96349973     0.36200
C976        C  0.31590463  0.36252839  0.89826411     0.37000
N977        N  0.28066320  0.30838400  0.00676214    -0.43800
N978        N  0.40623560  0.39471193  0.94296704    -0.44300
N979        N  0.30915691  0.35077932  0.88533805    -0.41600
N980        N  0.35093464  0.42669521  0.97676403    -0.43100
H981        H  0.33810390  0.43635359  0.93465716     0.13100
H982        H  0.32465842  0.34317245  0.92712199     0.09600
H983        H  0.29773480  0.34425235  0.96868042     0.10700
H984        H  0.38841783  0.35340475  0.97925125     0.16500
C985        C  0.99474124  0.13075105  0.04284213    -0.01700
C986        C  0.47549083  0.13971416  0.04913997     0.06900
C987        C  0.47539431  0.16201357  0.04121477    -0.07700
C988        C  0.49256476  0.17562385  0.02713545     0.04300
C989        C  0.01097425  0.16606887  0.02038490    -0.14900
C990        C  0.01146523  0.14404127  0.02859344    -0.08300
C991        C  0.45587412  0.12484005  0.06345274     0.05200
C992        C  0.45701716  0.13879392  0.07869161    -0.09400
C993        C  0.43938456  0.12515218  0.09258318     0.00200
C994        C  0.42043410  0.09681491  0.09148150     0.00100
C995        C  0.41861503  0.08322661  0.07594525    -0.12900
C996        C  0.43581841  0.09696677  0.06198183     0.00600
C997        C  0.44013052  0.14107217  0.10732952     0.39900
C998        C  0.43190911  0.08220151  0.04607368     0.36500
C999        C  0.99717634  0.10918552  0.05119777     0.36200
C1000       C  0.49096864  0.19817062  0.01959470     0.37000
N1001       N  0.44065396  0.15409647  0.11898268    -0.43800
N1002       N  0.42870889  0.07037640  0.03331244    -0.44300
N1003       N  0.48979508  0.21630734  0.01355875    -0.41600
N1004       N  0.99904895  0.09189609  0.05793828    -0.43100
H1005       H  0.02519194  0.13722912  0.02399342     0.13100
H1006       H  0.46146321  0.16853533  0.04588084     0.09600
H1007       H  0.47174196  0.16044661  0.07972501     0.10700
H1008       H  0.40369003  0.06166797  0.07468593     0.16500
C1009       C  0.10948605  0.14642684  0.91245800    -0.01700
C1010       C  0.12438654  0.16502882  0.89914857     0.06900
C1011       C  0.12697746  0.19110540  0.89948113    -0.07700
C1012       C  0.11430468  0.19847965  0.91236920     0.04300
C1013       C  0.09821334  0.17939272  0.92535479    -0.14900
C1014       C  0.09660788  0.15361018  0.92528117    -0.08300
C1015       C  0.13661802  0.15745614  0.88445894     0.05200
C1016       C  0.11941140  0.13678044  0.87293425    -0.09400
C1017       C  0.12989500  0.13023500  0.85834815     0.00200
C1018       C  0.15830814  0.14465828  0.85491550     0.00100
C1019       C  0.17547582  0.16493391  0.86675906    -0.12900
C1020       C  0.16497965  0.17124099  0.88137764     0.00600
C1021       C  0.11080052  0.10937070  0.84685582     0.39900
C1022       C  0.18383474  0.19150884  0.89327778     0.36500
C1023       C  0.10756787  0.11998091  0.91340731     0.36200
C1024       C  0.11841395  0.22584895  0.91183664     0.37000
N1025       N  0.09538873  0.09262431  0.83768680    -0.43800
N1026       N  0.19901109  0.20764034  0.90284587    -0.44300
N1027       N  0.12183240  0.24783467  0.91138350    -0.41600
N1028       N  0.10618043  0.09885467  0.91420725    -0.43100
H1029       H  0.08492841  0.13870048  0.93516792     0.13100
H1030       H  0.13865669  0.20568162  0.88942637     0.09600
H1031       H  0.09758249  0.12607649  0.87515771     0.10700
H1032       H  0.19733684  0.17592821  0.86467011     0.16500
C1033       C  0.39733497  0.06092013  0.90973658    -0.01700
C1034       C  0.42142187  0.06110389  0.91438506     0.06900
C1035       C  0.42587111  0.04013999  0.90876557    -0.07700
C1036       C  0.40621829  0.01843894  0.89899937     0.04300
C1037       C  0.38117321  0.01727727  0.89505834    -0.14900
C1038       C  0.37742158  0.03907687  0.90024325    -0.08300
C1039       C  0.44316184  0.08404469  0.92407442     0.05200
C1040       C  0.44656917  0.08099966  0.94170329    -0.09400
C1041       C  0.46759476  0.10235163  0.95107952     0.00200
C1042       C  0.48572037  0.12713963  0.94261353     0.00100
C1043       C  0.48165145  0.12993216  0.92492620    -0.12900
C1044       C  0.46074903  0.10872690  0.91569139     0.00600
C1045       C  0.46988420  0.09818715  0.96923818     0.39900
C1046       C  0.45805755  0.11247955  0.89749198     0.36500
C1047       C  0.39262799  0.08288298  0.91466106     0.36200
C1048       C  0.41254638  0.99786332  0.89336997     0.37000
N1049       N  0.47168796  0.09488421  0.98380911    -0.43800
N1050       N  0.45579077  0.11535139  0.88292000    -0.44300
N1051       N  0.41431172  0.47552766  0.89269647    -0.41600
N1052       N  0.38899511  0.10059636  0.91853071    -0.43100
H1053       H  0.35864605  0.03891158  0.89717618     0.13100
H1054       H  0.44491403  0.04089389  0.91193203     0.09600
H1055       H  0.43277844  0.06187632  0.94811221     0.10700
H1056       H  0.99046366  0.15135813  0.91967160     0.16500
C1057       C  0.20072651  0.37567415  0.92680905    -0.01700
C1058       C  0.18041175  0.35127969  0.91936990     0.06900
C1059       C  0.18041637  0.34749074  0.90146227    -0.07700
C1060       C  0.20139830  0.36710452  0.89105264     0.04300
C1061       C  0.22267043  0.39086989  0.89870363    -0.14900
C1062       C  0.22160312  0.39512797  0.91650029    -0.08300
C1063       C  0.15917641  0.32941790  0.93015770     0.05200
C1064       C  0.13240942  0.32429764  0.92889973    -0.09400
C1065       C  0.11155815  0.30345025  0.93856525     0.00200
C1066       C  0.11748895  0.28727092  0.94980046     0.00100
C1067       C  0.14454391  0.29313835  0.95152349    -0.12900
C1068       C  0.16534358  0.31385755  0.94165507     0.00600
C1069       C  0.08426094  0.29907002  0.93658229     0.39900
C1070       C  0.19256428  0.31786902  0.94284456     0.36500
C1071       C  0.20065769  0.38108448  0.94501251     0.36200
C1072       C  0.20141785  0.36158253  0.87288056     0.37000
N1073       N  0.06238540  0.29547431  0.93492082    -0.43800
N1074       N  0.21436290  0.32102175  0.94373761    -0.44300
N1075       N  0.20135753  0.35710774  0.85831164    -0.41600
N1076       N  0.20058651  0.38541643  0.95959219    -0.43100
H1077       H  0.23756300  0.41354053  0.92249366     0.13100
H1078       H  0.16448540  0.32880099  0.89572856     0.09600
H1079       H  0.12778564  0.33653117  0.92019686     0.10700
H1080       H  0.14921664  0.28056084  0.95987154     0.16500
C1081       C  0.45127453  0.27390630  0.00996103    -0.01700
C1082       C  0.45035895  0.26969154  0.99196352     0.06900
C1083       C  0.43410669  0.27631510  0.98172974    -0.07700
C1084       C  0.41831139  0.28635712  0.98921785     0.04300
C1085       C  0.41884495  0.29016295  0.00729779    -0.14900
C1086       C  0.43612888  0.28473493  0.01739643    -0.08300
C1087       C  0.46789620  0.26043588  0.98352066     0.05200
C1088       C  0.45663883  0.23332535  0.97775206    -0.09400
C1089       C  0.47347268  0.22359596  0.97128289     0.00200
C1090       C  0.00126653  0.23958396  0.97080439     0.00100
C1091       C  0.01178405  0.26711917  0.97549015    -0.12900
C1092       C  0.99498594  0.27643274  0.98216202     0.00600
C1093       C  0.46120488  0.19513688  0.96661130     0.39900
C1094       C  0.00714010  0.30474197  0.98722269     0.36500
C1095       C  0.46674838  0.26624824  0.02113515     0.36200
C1096       C  0.40236240  0.29340542  0.97801062     0.37000
N1097       N  0.45135962  0.17232167  0.96284549    -0.43800
N1098       N  0.01686013  0.32740965  0.99130150    -0.44300
N1099       N  0.38962440  0.29916957  0.96908235    -0.41600
N1100       N  0.47885749  0.25991263  0.03021871    -0.43100
H1101       H  0.43690278  0.28783943  0.03122753     0.13100
H1102       H  0.43389780  0.27377187  0.96785095     0.09600
H1103       H  0.43483939  0.21950898  0.97893781     0.10700
H1104       H  0.03354972  0.28133808  0.97453294     0.16500
C1105       C  0.21738155  0.25187997  0.04085956    -0.01700
C1106       C  0.20664026  0.23771967  0.02522305     0.06900
C1107       C  0.22388269  0.23444030  0.01377153    -0.07700
C1108       C  0.25130794  0.24458475  0.01761873     0.04300
C1109       C  0.26215017  0.25823732  0.03347900    -0.14900
C1110       C  0.24494592  0.26188114  0.04490453    -0.08300
C1111       C  0.17835425  0.22841264  0.01943786     0.05200
C1112       C  0.17047721  0.24803489  0.01692179    -0.09400
C1113       C  0.14576507  0.24117959  0.00895087     0.00200
C1114       C  0.12857348  0.21418937  0.00292163     0.00100
C1115       C  0.13618438  0.19437604  0.00576477    -0.12900
C1116       C  0.16067453  0.20118214  0.01416738     0.00600
C1117       C  0.13932297  0.26270107  0.00649026     0.39900
C1118       C  0.16716990  0.17988840  0.01740102     0.36500
C1119       C  0.20055956  0.25634188  0.05292281     0.36200
C1120       C  0.26801856  0.24211450  0.00442166     0.37000
N1121       N  0.13426247  0.28003127  0.00466390    -0.43800
N1122       N  0.17233463  0.16281422  0.02007618    -0.44300
N1123       N  0.28131304  0.24026034  0.99374646    -0.41600
N1124       N  0.18714851  0.26011048  0.06255132    -0.43100
H1125       H  0.25297448  0.27241521  0.05703199     0.13100
H1126       H  0.21599853  0.22459133  0.00141944     0.09600
H1127       H  0.18418571  0.26908785  0.02064226     0.10700
H1128       H  0.12285055  0.17349490  0.00158709     0.16500
O1129       O  0.04231704  0.74256509  0.97648317    -0.85100
O1130       O  0.03220198  0.70218710  0.00036069    -0.82100
C1131       C  0.02809303  0.67930543  0.00585885     0.98400
O1132       O  0.04080493  0.66832975  0.99910494    -0.82100
O1133       O  0.01791582  0.64785318  0.96738568    -0.84800
C1134       C  0.01018409  0.64875932  0.95227576     1.02900
O1135       O  0.02328408  0.67001476  0.94332239    -0.77600
O1136       O  0.01609284  0.71037742  0.95850377    -0.77700
C1137       C  0.01996406  0.72945832  0.96866623     1.02900
O1138       O  0.09738603  0.75440858  0.97294192    -0.85100
O1139       O  0.08838807  0.71889496  0.00042093    -0.82100
C1140       C  0.10263897  0.70871780  0.99572380     0.98400
O1141       O  0.09475120  0.69174454  0.98349305    -0.82200
O1142       O  0.07135578  0.66889848  0.95196689    -0.84800
C1143       C  0.08231741  0.68586090  0.93961483     1.02900
O1144       O  0.07922950  0.70654502  0.93860509    -0.77600
O1145       O  0.07228092  0.74879927  0.95022624    -0.77700
C1146       C  0.09447626  0.76238529  0.95821986     1.02800
Cr1147     Cr  0.06453036  0.72756660  0.98630722     1.93700
Cr1148     Cr  0.05630734  0.67162736  0.97516095     1.93200
Cr1149     Cr  0.04824079  0.70847141  0.94933852     1.39100
O1150       O  0.05640248  0.70232426  0.97025330    -1.22800
O1151       O  0.28196581  0.96661013  0.85458233    -0.85100
O1152       O  0.30556170  0.94363115  0.83589403    -0.82100
C1153       C  0.33058153  0.96217317  0.83527186     0.98400
O1154       O  0.34555713  0.96650341  0.84832635    -0.82100
O1155       O  0.35980141  0.97241329  0.88275899    -0.84800
C1156       C  0.35769339  0.99280478  0.88731224     1.02900
O1157       O  0.33474903  0.99128729  0.88684125    -0.77600
O1158       O  0.27936573  0.97156397  0.88236651    -0.77700
C1159       C  0.27675953  0.97749596  0.86697920     1.02900
O1160       O  0.24828054  0.91597601  0.87353994    -0.85100
O1161       O  0.27460115  0.89415451  0.85669045    -0.82100
C1162       C  0.29267705  0.88958357  0.85108005     0.98400
O1163       O  0.31750871  0.90806589  0.85171577    -0.82200
O1164       O  0.32643398  0.91439021  0.88722193    -0.84800
C1165       C  0.32530112  0.92116163  0.90261416     1.02900
O1166       O  0.32293390  0.94202793  0.90550178    -0.77600
O1167       O  0.26982510  0.92161655  0.89805955    -0.77700
C1168       C  0.24827329  0.91013918  0.88938594     1.02800
Cr1169     Cr  0.27949904  0.93090213  0.85630003     1.93700
Cr1170     Cr  0.33521347  0.94044275  0.86778165     1.93200
Cr1171     Cr  0.30207872  0.95586081  0.89166093     1.39100
O1172       O  0.30550338  0.94242830  0.87188472    -1.22800
O1173       O  0.27733114  0.81392440  0.31890299    -0.85100
O1174       O  0.30291156  0.85882079  0.33872191    -0.82100
C1175       C  0.32750130  0.86394444  0.33901030     0.98400
O1176       O  0.34258174  0.87474602  0.32598820    -0.82100
O1177       O  0.35732639  0.88457389  0.29168595    -0.84800
C1178       C  0.35375683  0.86163106  0.28680126     1.02900
O1179       O  0.33011518  0.84123409  0.28655837    -0.77600
O1180       O  0.27493156  0.80731539  0.29109835    -0.77700
C1181       C  0.27203072  0.79810530  0.30634724     1.02900
O1182       O  0.24584959  0.83479150  0.30143036    -0.85100
O1183       O  0.27452668  0.88150070  0.31972274    -0.82100
C1184       C  0.29372745  0.90325673  0.32564572     0.98400
O1185       O  0.31816368  0.90871740  0.32389416    -0.82200
O1186       O  0.32729734  0.91287534  0.28833855    -0.84800
C1187       C  0.32518982  0.90538075  0.27276437     1.02900
O1188       O  0.32066853  0.88149071  0.26922006    -0.77600
O1189       O  0.26714539  0.85009851  0.27666544    -0.77700
C1190       C  0.24605086  0.84136460  0.28574047     1.02800
Cr1191     Cr  0.27706482  0.84831891  0.31843600     1.93700
Cr1192     Cr  0.33401076  0.89300521  0.30716128     1.93200
Cr1193     Cr  0.29861858  0.84621208  0.28247484     1.39100
O1194       O  0.30303791  0.86253108  0.30266243    -1.22800
O1195       O  0.04696080  0.81056814  0.19642524    -0.85100
O1196       O  0.03556045  0.84032478  0.17337418    -0.82100
C1197       C  0.02953561  0.85796138  0.16838334     0.98400
O1198       O  0.04093546  0.88143709  0.17533515    -0.82100
O1199       O  0.01371662  0.87191796  0.20630795    -0.84800
C1200       C  0.00597316  0.86199060  0.22122266     1.02900
O1201       O  0.02159091  0.85793244  0.23072894    -0.77600
O1202       O  0.01920327  0.81277297  0.21513926    -0.77700
C1203       C  0.02447901  0.79920468  0.20442136     1.02900
O1204       O  0.10077866  0.85636319  0.20150729    -0.85100
O1205       O  0.09072902  0.88386354  0.17528234    -0.82100
C1206       C  0.10312353  0.90771536  0.18139837     0.98400
O1207       O  0.09241575  0.91418157  0.19342114    -0.82200
O1208       O  0.06462317  0.90785121  0.22364818    -0.84800
C1209       C  0.07805863  0.90373662  0.23518704     1.02900
O1210       O  0.07827003  0.88143568  0.23553868    -0.77600
O1211       O  0.07539732  0.83402242  0.22363110    -0.77700
C1212       C  0.09803886  0.84461064  0.21589266     1.02800
Cr1213     Cr  0.06781499  0.84889948  0.18779833     1.93700
Cr1214     Cr  0.05321907  0.89177950  0.19990711     1.93200
Cr1215     Cr  0.04911971  0.84760677  0.22472099     1.39100
O1216       O  0.05671289  0.86288677  0.20412154    -1.22800
O1217       O  0.31428341  0.53569884  0.15487010    -0.85100
O1218       O  0.36000085  0.55706579  0.17417850    -0.82100
C1219       C  0.36621028  0.53828880  0.17484973     0.98400
O1220       O  0.37650194  0.53334382  0.16182712    -0.82100
O1221       O  0.38582914  0.52728416  0.12712997    -0.84800
C1222       C  0.36315418  0.50814794  0.12165897     1.02900
O1223       O  0.34219065  0.51015315  0.12330627    -0.77600
O1224       O  0.30749744  0.53078008  0.12709210    -0.77700
C1225       C  0.29837760  0.52504506  0.14237153     1.02900
O1226       O  0.33322534  0.58673090  0.13609912    -0.85100
O1227       O  0.38071922  0.60715328  0.15366287    -0.82100
C1228       C  0.40308757  0.61098028  0.15931704     0.98400
O1229       O  0.40858737  0.59180866  0.15879704    -0.82200
O1230       O  0.41211642  0.58564547  0.12333538    -0.84800
C1231       C  0.40452744  0.57935214  0.10785977     1.02900
O1232       O  0.38101788  0.55912903  0.10470818    -0.77600
O1233       O  0.34897151  0.58041992  0.11166182    -0.77700
C1234       C  0.33900104  0.59212899  0.12021307     1.02800
Cr1235     Cr  0.34817214  0.57084027  0.15356513     1.93700
Cr1236     Cr  0.39353945  0.55943622  0.14253227     1.93200
Cr1237     Cr  0.34603727  0.54585367  0.11822929     1.39100
O1238       O  0.36253819  0.55883468  0.13811854    -1.22800
O1239       O  0.30271826  0.75835444  0.03230006    -0.85100
O1240       O  0.33313727  0.80030599  0.00938195    -0.82100
C1241       C  0.35197275  0.82313914  0.00396753     0.98400
O1242       O  0.37566415  0.83401624  0.01062043    -0.82100
O1243       O  0.36996046  0.85516383  0.04096699    -0.84800
C1244       C  0.35751362  0.85386752  0.05474216     1.02900
O1245       O  0.34856829  0.83329766  0.06451628    -0.77600
O1246       O  0.30465323  0.78981524  0.04925007    -0.77700
C1247       C  0.29140481  0.77048087  0.03886705     1.02900
O1248       O  0.34777083  0.75050530  0.03772487    -0.85100
O1249       O  0.37489451  0.78653664  0.01060030    -0.82100
C1250       C  0.39859743  0.79626246  0.01653106     0.98400
O1251       O  0.40568325  0.81202535  0.02932768    -0.82200
O1252       O  0.40205955  0.83629845  0.05904727    -0.84800
C1253       C  0.39508070  0.82019109  0.07186193     1.02900
O1254       O  0.37123948  0.79992967  0.07308471    -0.77600
O1255       O  0.32629775  0.75500829  0.05998682    -0.77700
C1256       C  0.33649653  0.74235073  0.05232759     1.02800
Cr1257     Cr  0.34081176  0.77585077  0.02371332     1.93700
Cr1258     Cr  0.38608756  0.83201376  0.03533105     1.93200
Cr1259     Cr  0.33887871  0.79496699  0.06013091     1.39100
O1260       O  0.35549976  0.80120029  0.03989205    -1.22800
O1261       O  0.23751262  0.69205356  0.81160929    -0.85100
O1262       O  0.19596222  0.66128173  0.83441010    -0.82100
C1263       C  0.17277756  0.64254158  0.83941580     0.98400
O1264       O  0.16161514  0.61921917  0.83209199    -0.82100
O1265       O  0.14394710  0.62379650  0.79961187    -0.84800
C1266       C  0.14584336  0.63227898  0.78431903     1.02900
O1267       O  0.16781043  0.64123052  0.77605145    -0.77600
O1268       O  0.20756897  0.68789471  0.79235594    -0.77700
C1269       C  0.22574295  0.70230860  0.80320546     1.02900
O1270       O  0.24924884  0.64866277  0.80816504    -0.85100
O1271       O  0.21121947  0.62079239  0.83431294    -0.82100
C1272       C  0.20234251  0.59700986  0.82868290     0.98400
O1273       O  0.18585603  0.58877035  0.81621858    -0.82200
O1274       O  0.16516850  0.59154052  0.78456430    -0.84800
C1275       C  0.18284315  0.59773396  0.77267146     1.02900
O1276       O  0.20406782  0.62113648  0.77251825    -0.77600
O1277       O  0.24604236  0.66974509  0.78533259    -0.77700
C1278       C  0.25877744  0.66061348  0.79388496     1.02800
Cr1279     Cr  0.22166963  0.65441200  0.82080684     1.93700
Cr1280     Cr  0.16655021  0.60812072  0.80794815     1.93200
Cr1281     Cr  0.20574974  0.65392875  0.78324346     1.39100
O1282       O  0.19770271  0.63867441  0.80398211    -1.22800
O1283       O  0.46495277  0.68640174  0.68938936    -0.85100
O1284       O  0.44150966  0.64134195  0.66980736    -0.82100
C1285       C  0.46092140  0.63618126  0.66855840     0.98400
O1286       O  0.46590049  0.62492733  0.68104297    -0.82100
O1287       O  0.47218805  0.61323371  0.71500794    -0.84800
C1288       C  0.49225904  0.63528510  0.72049239     1.02900
O1289       O  0.49064828  0.65665013  0.72067693    -0.77600
O1290       O  0.47172704  0.69276426  0.71717913    -0.77700
C1291       C  0.47711708  0.70181989  0.70183671     1.02900
O1292       O  0.41547095  0.66955544  0.70926567    -0.85100
O1293       O  0.39266055  0.62143721  0.69127960    -0.82100
C1294       C  0.38820422  0.59919493  0.68487162     0.98400
O1295       O  0.40720118  0.59342760  0.68450169    -0.82200
O1296       O  0.41434702  0.58792129  0.71953391    -0.84800
C1297       C  0.42097916  0.59448478  0.73509972     1.02900
O1298       O  0.44101857  0.61796139  0.73870341    -0.77600
O1299       O  0.42142290  0.65184005  0.73284054    -0.77700
C1300       C  0.41062339  0.66355783  0.72518180     1.02800
Cr1301     Cr  0.42941083  0.65348662  0.69105865     1.93700
Cr1302     Cr  0.44002606  0.60707424  0.70033572     1.93200
Cr1303     Cr  0.45531869  0.65375375  0.72579769     1.39100
O1304       O  0.44155037  0.63818488  0.70577105    -1.22800
O1305       O  0.44878108  0.75643176  0.47637958    -0.85100
O1306       O  0.45779172  0.79622109  0.50010213    -0.82100
C1307       C  0.46175997  0.81910170  0.50538141     0.98400
O1308       O  0.44818601  0.82937299  0.49904979    -0.82100
O1309       O  0.47192255  0.84956335  0.46759536    -0.84800
C1310       C  0.47904681  0.84939049  0.45223096     1.02900
O1311       O  0.46592318  0.82865953  0.44287260    -0.77600
O1312       O  0.47380299  0.78822685  0.45758909    -0.77700
C1313       C  0.47046140  0.76916948  0.46765686     1.02900
O1314       O  0.39303101  0.74339354  0.47308515    -0.85100
O1315       O  0.40099211  0.77898898  0.50005943    -0.82100
C1316       C  0.38658200  0.78891786  0.49498894     0.98400
O1317       O  0.39484085  0.80576937  0.48267988    -0.82200
O1318       O  0.41901778  0.82933842  0.45183647    -0.84800
C1319       C  0.40700635  0.81194128  0.43994147     1.02900
O1320       O  0.40971000  0.79105919  0.43898633    -0.77600
O1321       O  0.41795253  0.74935369  0.45014948    -0.77700
C1322       C  0.39590121  0.73556866  0.45834920     1.02800
Cr1323     Cr  0.42565381  0.77060998  0.48621859     1.93700
Cr1324     Cr  0.43343683  0.82619168  0.47499583     1.93200
Cr1325     Cr  0.44135686  0.78977715  0.44902558     1.39100
O1326       O  0.43352427  0.79569775  0.47008279    -1.22800
O1327       O  0.21327208  0.52739166  0.35643654    -0.85100
O1328       O  0.19079630  0.55013314  0.33615200    -0.82100
C1329       C  0.16567853  0.53206295  0.33587821     0.98400
O1330       O  0.15077722  0.52879228  0.34882266    -0.82100
O1331       O  0.13665485  0.52505684  0.38322634    -0.84800
C1332       C  0.13880561  0.50502616  0.38869139     1.02900
O1333       O  0.16176660  0.50661842  0.38899361    -0.77600
O1334       O  0.21698158  0.52575859  0.38442942    -0.77700
C1335       C  0.21892457  0.51796075  0.36946431     1.02900
O1336       O  0.24808611  0.57936132  0.37331560    -0.85100
O1337       O  0.22263733  0.60104630  0.35462131    -0.82100
C1338       C  0.20446557  0.60583521  0.34930941     0.98400
O1339       O  0.17955601  0.58760703  0.35064946    -0.82200
O1340       O  0.17005618  0.58348264  0.38595324    -0.84800
C1341       C  0.17111406  0.57776544  0.40159517     1.02900
O1342       O  0.17394285  0.55745425  0.40541824    -0.77600
O1343       O  0.22699174  0.57701439  0.39763723    -0.77700
C1344       C  0.24846747  0.58644109  0.38889436     1.02800
Cr1345     Cr  0.21678327  0.56378720  0.35631081     1.93700
Cr1346     Cr  0.16142444  0.55611845  0.36746189     1.93200
Cr1347     Cr  0.19454223  0.54242007  0.39252240     1.39100
O1348       O  0.19102570  0.55419937  0.37207679    -1.22800
O1349       O  0.18934385  0.95172886  0.64414716    -0.85100
O1350       O  0.15753558  0.96322990  0.66546348    -0.82100
C1351       C  0.13878864  0.96796472  0.66992752     0.98400
O1352       O  0.11585466  0.95604855  0.66219444    -0.82100
O1353       O  0.12290953  0.97924610  0.62984619    -0.84800
C1354       C  0.13182316  0.98565376  0.61464584     1.02900
O1355       O  0.14179716  0.97301590  0.60699734    -0.77600
O1356       O  0.18694570  0.97811777  0.62439016    -0.77700
C1357       C  0.20071080  0.97334034  0.63521314     1.02900
O1358       O  0.14453534  0.89692034  0.63984083    -0.85100
O1359       O  0.11596856  0.90784294  0.66480257    -0.82100
C1360       C  0.09266617  0.89344221  0.65834911     0.98400
O1361       O  0.08601047  0.90215663  0.64538445    -0.82200
O1362       O  0.09139521  0.92671935  0.61404241    -0.84800
C1363       C  0.09796812  0.91487199  0.60264588     1.02900
O1364       O  0.12103771  0.91648872  0.60326205    -0.77600
O1365       O  0.16774462  0.92155083  0.61765105    -0.77700
C1366       C  0.15679526  0.89914497  0.62576521     1.02800
Cr1367     Cr  0.15076352  0.93052759  0.65225461     1.93700
Cr1368     Cr  0.10631021  0.94090223  0.63780923     1.93200
Cr1369     Cr  0.15325330  0.94692500  0.61465573     1.39100
O1370       O  0.13673443  0.93974215  0.63488901    -1.22800
O1371       O  0.18682296  0.73360033  0.53090307    -0.85100
O1372       O  0.15530676  0.69562391  0.50662842    -0.82100
C1373       C  0.13595895  0.67365493  0.50063586     0.98400
O1374       O  0.11250364  0.66283585  0.50763057    -0.82100
O1375       O  0.11531784  0.63952952  0.53836496    -0.84800
C1376       C  0.12456894  0.63933188  0.55313960     1.02900
O1377       O  0.13274928  0.65957733  0.56305222    -0.77600
O1378       O  0.18049127  0.70097124  0.54883939    -0.77700
C1379       C  0.19555695  0.71959930  0.53833205     1.04100
O1380       O  0.14439022  0.74690058  0.53621051    -0.85100
O1381       O  0.11656021  0.71335201  0.50840259    -0.82100
C1382       C  0.09260770  0.70380267  0.51394208     0.98400
O1383       O  0.08392223  0.68640262  0.52593385    -0.82200
O1384       O  0.08439732  0.66021229  0.55553696    -0.84800
C1385       C  0.09002462  0.67661136  0.56802481     1.02900
O1386       O  0.11389156  0.69692685  0.56947504    -0.77600
O1387       O  0.16358064  0.73921316  0.55836053    -0.77700
C1388       C  0.15531981  0.75362295  0.55094641     1.02800
Cr1389     Cr  0.14944438  0.72045073  0.52177492     1.93700
Cr1390     Cr  0.10140445  0.66456085  0.53217425     1.93200
Cr1391     Cr  0.14663384  0.69882242  0.55831902     1.39100
O1392       O  0.13245027  0.69432380  0.53741538    -1.22800
C1393       C  0.09937834  0.56693336  0.56797180    -0.01700
C1394       C  0.12152868  0.57034196  0.57812140     0.06900
C1395       C  0.14555969  0.59570873  0.57843933    -0.07700
C1396       C  0.14746721  0.61797991  0.56940371     0.04300
C1397       C  0.12494771  0.61505899  0.55980348    -0.14900
C1398       C  0.10123051  0.58929827  0.55885454    -0.08300
C1399       C  0.12084460  0.54763212  0.58804687     0.05200
C1400       C  0.12199021  0.52685598  0.57902449    -0.09400
C1401       C  0.12450170  0.50662522  0.58778876     0.00200
C1402       C  0.12691721  0.50756158  0.60605233     0.00100
C1403       C  0.12436949  0.52768819  0.61511088    -0.12900
C1404       C  0.12118738  0.54757140  0.60624043     0.00600
C1405       C  0.12957356  0.98635067  0.57629298     0.39900
C1406       C  0.11772185  0.56738577  0.61598687     0.36500
C1407       C  0.07425952  0.54104728  0.56739893     0.36200
C1408       C  0.17288551  0.64359464  0.57016320     0.37000
N1409       N  0.12945029  0.96931014  0.56794616    -0.43800
N1410       N  0.11461628  0.58310804  0.62375356    -0.44300
N1411       N  0.19337109  0.66397981  0.57083505    -0.41600
N1412       N  0.05415798  0.52025097  0.56702479    -0.43100
H1413       H  0.08373961  0.58697683  0.55171510     0.13100
H1414       H  0.16284408  0.59811233  0.58587153     0.09600
H1415       H  0.12114998  0.52660948  0.56502531     0.10700
H1416       H  0.12513201  0.52806831  0.62910088     0.16500
C1417       C  0.18186941  0.86409709  0.59610827    -0.01700
C1418       C  0.15960544  0.83712442  0.59577639     0.06900
C1419       C  0.13806717  0.82953161  0.60757768    -0.07700
C1420       C  0.13755599  0.84888227  0.61870139     0.04300
C1421       C  0.15888791  0.87633268  0.61801572    -0.14900
C1422       C  0.18134932  0.88326519  0.60717097    -0.08300
C1423       C  0.15869758  0.81671081  0.58328747     0.05200
C1424       C  0.18020014  0.81116336  0.58320206    -0.09400
C1425       C  0.18053009  0.79237696  0.57170747     0.00200
C1426       C  0.15844517  0.77784326  0.56025757     0.00100
C1427       C  0.13723461  0.78391474  0.55990883    -0.12900
C1428       C  0.13719868  0.80320196  0.57130363     0.00600
C1429       C  0.20388844  0.78845395  0.57194672     0.39900
C1430       C  0.11485897  0.80865050  0.57054047     0.36500
C1431       C  0.20498294  0.87315927  0.58465521     0.36200
C1432       C  0.11431618  0.84029671  0.62994334     0.37000
N1433       N  0.22260454  0.78533577  0.57212093    -0.43800
N1434       N  0.09691117  0.81295644  0.56999786    -0.44300
N1435       N  0.09572673  0.83332677  0.63900461    -0.41600
N1436       N  0.22364833  0.88045961  0.57561483    -0.43100
H1437       H  0.19807401  0.90411647  0.60674455     0.13100
H1438       H  0.12139499  0.80867078  0.60780756     0.09600
H1439       H  0.19694665  0.82155423  0.59237669     0.10700
H1440       H  0.12012066  0.77276091  0.55127773     0.16500
C1441       C  0.17386038  0.65917365  0.46531127    -0.01700
C1442       C  0.15263117  0.63696681  0.45644805     0.06900
C1443       C  0.12563791  0.62708614  0.46186816    -0.07700
C1444       C  0.11955558  0.63866065  0.47600386     0.04300
C1445       C  0.14087493  0.66078472  0.48515477    -0.14900
C1446       C  0.16789728  0.67081706  0.47943050    -0.08300
C1447       C  0.15822590  0.62300175  0.44199846     0.05200
C1448       C  0.17340404  0.61004136  0.44532084    -0.09400
C1449       C  0.17854775  0.59599087  0.43230269     0.00200
C1450       C  0.16772771  0.59399685  0.41554870     0.00100
C1451       C  0.15316468  0.60767304  0.41213316    -0.12900
C1452       C  0.14847803  0.62215293  0.42512967     0.00600
C1453       C  0.19606705  0.58497767  0.43638311     0.39900
C1454       C  0.13429274  0.63663067  0.42074787     0.36500
C1455       C  0.20193992  0.67062746  0.45996865     0.36200
C1456       C  0.09119364  0.62731676  0.48060981     0.37000
N1457       N  0.21034279  0.57644164  0.43967480    -0.43800
N1458       N  0.12308551  0.64839102  0.41721154    -0.44300
N1459       N  0.06842951  0.61815510  0.48424854    -0.41600
N1460       N  0.22439877  0.67970924  0.45562265    -0.43100
H1461       H  0.18460356  0.68774266  0.48605768     0.13100
H1462       H  0.10921208  0.60993796  0.45512996     0.09600
H1463       H  0.18134630  0.61097565  0.45818345     0.10700
H1464       H  0.14516446  0.60686253  0.39931119     0.16500
C1465       C  0.03422043  0.88564751  0.57465390    -0.01700
C1466       C  0.04073049  0.87374827  0.56082713     0.06900
C1467       C  0.06615827  0.87509285  0.56073935    -0.07700
C1468       C  0.08507757  0.88809320  0.57410078     0.04300
C1469       C  0.07855631  0.89995769  0.58816886    -0.14900
C1470       C  0.05289590  0.89840185  0.58811273    -0.08300
C1471       C  0.02120503  0.85985599  0.54637972     0.05200
C1472       C  0.01529875  0.87546492  0.53492448    -0.09400
C1473       C  0.49545746  0.86246575  0.52140198     0.00200
C1474       C  0.48196660  0.83365793  0.51942236     0.00100
C1475       C  0.48839965  0.81843720  0.53095154    -0.12900
C1476       C  0.50720354  0.83116904  0.54436758     0.00600
C1477       C  0.99301530  0.88063802  0.50939944     0.39900
C1478       C  0.51286237  0.81446041  0.55583429     0.36500
C1479       C  0.00825894  0.88468105  0.57541458     0.36200
C1480       C  0.11105379  0.88918234  0.57269671     0.37000
N1481       N  0.99041970  0.89477600  0.49970042    -0.43800
N1482       N  0.51750695  0.80110499  0.56499519    -0.44300
N1483       N  0.13186536  0.89006448  0.57146407    -0.41600
N1484       N  0.48599195  0.88339205  0.57643830    -0.43100
H1485       H  0.04729025  0.90731156  0.59860545     0.13100
H1486       H  0.07134253  0.86612804  0.55005553     0.09600
H1487       H  0.02564889  0.89750981  0.53644925     0.10700
H1488       H  0.47853534  0.79640174  0.52958841     0.16500
C1489       C  0.03424165  0.92268942  0.43967030    -0.01700
C1490       C  0.05150231  0.91740299  0.42917751     0.06900
C1491       C  0.04836261  0.89119888  0.42905774    -0.07700
C1492       C  0.02727405  0.86989036  0.43821968     0.04300
C1493       C  0.00843745  0.87453585  0.44741378    -0.14900
C1494       C  0.01264851  0.90114567  0.44859676    -0.08300
C1495       C  0.07333607  0.93872571  0.41836629     0.05200
C1496       C  0.10010444  0.94426980  0.42086226    -0.09400
C1497       C  0.12144014  0.96360409  0.41073460     0.00200
C1498       C  0.11624907  0.97877183  0.39819599     0.00100
C1499       C  0.08921068  0.97243112  0.39530305    -0.12900
C1500       C  0.06772510  0.95208197  0.40494994     0.00600
C1501       C  0.13318110  0.44962545  0.39031241     0.39900
C1502       C  0.04009286  0.94441830  0.40035261     0.36500
C1503       C  0.03841174  0.94995016  0.44154356     0.36200
C1504       C  0.02578116  0.84359564  0.43815170     0.37000
N1505       N  0.14937150  0.44523089  0.38437499    -0.43800
N1506       N  0.01793274  0.93807291  0.39657119    -0.44300
N1507       N  0.02522314  0.82283054  0.43807169    -0.41600
N1508       N  0.04181710  0.97182078  0.44307883    -0.43100
H1509       H  0.99849472  0.90488926  0.45590875     0.13100
H1510       H  0.06219623  0.88727319  0.42151585     0.09600
H1511       H  0.10432548  0.93334645  0.43079736     0.10700
H1512       H  0.08481771  0.98326869  0.38541065     0.16500
C1513       C  0.30946686  0.65284038  0.40139251    -0.01700
C1514       C  0.31467030  0.64651318  0.41808587     0.06900
C1515       C  0.30041517  0.61950590  0.42402971    -0.07700
C1516       C  0.28018546  0.59902109  0.41387757     0.04300
C1517       C  0.27393302  0.60561280  0.39756404    -0.14900
C1518       C  0.28917169  0.63232250  0.39122389    -0.08300
C1519       C  0.33528443  0.66770595  0.42943766     0.05200
C1520       C  0.32688791  0.67861257  0.44279561    -0.09400
C1521       C  0.34613451  0.70004897  0.45304483     0.00200
C1522       C  0.37427316  0.71039543  0.45008425     0.00100
C1523       C  0.38233478  0.69833702  0.43717336    -0.12900
C1524       C  0.36317953  0.67740991  0.42680482     0.00600
C1525       C  0.33645828  0.71217691  0.46555678     0.39900
C1526       C  0.37258464  0.66672304  0.41316956     0.36500
C1527       C  0.32385710  0.68037387  0.39470443     0.36200
C1528       C  0.26585752  0.57136509  0.42047140     0.37000
N1529       N  0.32865981  0.72197525  0.47549893    -0.43800
N1530       N  0.38000077  0.65821741  0.40214704    -0.44300
N1531       N  0.25437838  0.54915680  0.42564744    -0.41600
N1532       N  0.33523659  0.70233430  0.38914203    -0.43100
H1533       H  0.28414086  0.63746969  0.37879365     0.13100
H1534       H  0.30489090  0.61453388  0.43668933     0.09600
H1535       H  0.30530972  0.67102848  0.44477842     0.10700
H1536       H  0.40380281  0.70589352  0.43473859     0.16500
C1537       C  0.03515770  0.77342058  0.48494228    -0.01700
C1538       C  0.02893296  0.74616624  0.48235169     0.06900
C1539       C  0.00550738  0.72825168  0.47306346    -0.07700
C1540       C  0.48374283  0.73309585  0.47062961     0.04300
C1541       C  0.49135169  0.76102607  0.46969258    -0.14900
C1542       C  0.51831528  0.78099601  0.47351942    -0.08300
C1543       C  0.04543548  0.73530406  0.49023108     0.05200
C1544       C  0.04474772  0.73203967  0.50821280    -0.09400
C1545       C  0.05929734  0.72100526  0.51618581     0.00200
C1546       C  0.07510423  0.71332918  0.50607033     0.00100
C1547       C  0.07582908  0.71669450  0.48807559    -0.12900
C1548       C  0.06084402  0.72721589  0.48009387     0.00600
C1549       C  0.05863220  0.71886771  0.53477237     0.39900
C1550       C  0.06172075  0.72973510  0.46153192     0.36500
C1551       C  0.05923142  0.79260797  0.49428765     0.36200
C1552       C  0.45671958  0.71169927  0.46592755     0.37000
N1553       N  0.05818117  0.71712683  0.54966130    -0.43800
N1554       N  0.06227426  0.73161069  0.44665007    -0.44300
N1555       N  0.43511152  0.69450163  0.46214746    -0.41600
N1556       N  0.07849729  0.80794886  0.50182022    -0.43100
H1557       H  0.52428943  0.80246880  0.47287464     0.13100
H1558       H  0.00073335  0.70731497  0.47100351     0.09600
H1559       H  0.03272500  0.73807738  0.51601744     0.10700
H1560       H  0.08803633  0.71094762  0.48023211     0.16500
C1561       C  0.25673748  0.73598766  0.51105907    -0.01700
C1562       C  0.27778799  0.74496519  0.52337241     0.06900
C1563       C  0.27113606  0.74271886  0.54101979    -0.07700
C1564       C  0.24405203  0.73279845  0.54640019     0.04300
C1565       C  0.22339337  0.72553577  0.53397840    -0.14900
C1566       C  0.22998641  0.72686638  0.51641638    -0.08300
C1567       C  0.30677466  0.75773057  0.51780691     0.05200
C1568       C  0.31778555  0.78138103  0.50751495    -0.09400
C1569       C  0.34394704  0.79254494  0.50034981     0.00200
C1570       C  0.35978467  0.77995436  0.50350984     0.00100
C1571       C  0.34913088  0.75707337  0.51460532    -0.12900
C1572       C  0.32295086  0.74595416  0.52170359     0.00600
C1573       C  0.35372462  0.81679448  0.48981887     0.39900
C1574       C  0.31269951  0.72173069  0.53229588     0.36500
C1575       C  0.26210268  0.73585365  0.49283652     0.36200
C1576       C  0.23826094  0.73179685  0.56459518     0.37000
N1577       N  0.36150423  0.83624500  0.48140211    -0.43800
N1578       N  0.30452420  0.70236298  0.54082924    -0.44300
N1579       N  0.23363927  0.73094565  0.57919938    -0.41600
N1580       N  0.26651197  0.73569254  0.47826915    -0.43100
H1581       H  0.21419545  0.72117285  0.50682200     0.13100
H1582       H  0.28719951  0.74944749  0.55055385     0.09600
H1583       H  0.30555923  0.79081987  0.50476100     0.10700
H1584       H  0.36089033  0.74713385  0.51734282     0.16500
C1585       C  0.00952128  0.63504734  0.63559942    -0.01700
C1586       C  0.01099180  0.65383608  0.62307208     0.06900
C1587       C  0.49664518  0.66828739  0.62546551    -0.07700
C1588       C  0.47883985  0.66145325  0.63967320     0.04300
C1589       C  0.47793226  0.64297340  0.65247390    -0.14900
C1590       C  0.99230390  0.62890873  0.64993891    -0.08300
C1591       C  0.03001363  0.66128558  0.60807204     0.05200
C1592       C  0.02415637  0.64197797  0.59505756    -0.09400
C1593       C  0.04295610  0.64655869  0.58184803     0.00200
C1594       C  0.06855776  0.67128420  0.58133624     0.00100
C1595       C  0.07391361  0.69094939  0.59421338    -0.12900
C1596       C  0.05503282  0.68611365  0.60748537     0.00600
C1597       C  0.03555909  0.62479486  0.56954234     0.39900
C1598       C  0.06220074  0.70631995  0.62085933     0.36500
C1599       C  0.02622567  0.62242742  0.63423949     0.36200
C1600       C  0.46240872  0.67436622  0.64091816     0.37000
N1601       N  0.02957942  0.60723962  0.55976131    -0.43800
N1602       N  0.06782357  0.72236548  0.63166960    -0.44300
N1603       N  0.44923464  0.68472393  0.64189858    -0.41600
N1604       N  0.03970250  0.61243052  0.63305946    -0.43100
H1605       H  0.99189250  0.61465662  0.65949658     0.13100
H1606       H  0.49736455  0.68258411  0.61581558     0.09600
H1607       H  0.00497339  0.62269001  0.59555609     0.10700
H1608       H  0.09327182  0.71011709  0.59416230     0.16500
C1609       C  0.06958687  0.83045814  0.68586094    -0.01700
C1610       C  0.04305165  0.81302417  0.67982594     0.06900
C1611       C  0.03190281  0.82233985  0.66718173    -0.07700
C1612       C  0.04712780  0.84869575  0.66021844     0.04300
C1613       C  0.07410241  0.86622445  0.66606838    -0.14900
C1614       C  0.08472664  0.85677126  0.67909815    -0.08300
C1615       C  0.02726226  0.78446669  0.68590037     0.05200
C1616       C  0.01669419  0.77901925  0.70273723    -0.09400
C1617       C  0.00115909  0.75206467  0.70873086     0.00200
C1618       C  0.49672477  0.73082094  0.69776514     0.00100
C1619       C  0.50864104  0.73681801  0.68121363    -0.12900
C1620       C  0.02319003  0.76274458  0.67513389     0.00600
C1621       C  0.98968333  0.74756005  0.72586408     0.39900
C1622       C  0.53559662  0.76858573  0.65822015     0.36500
C1623       C  0.08220584  0.82128805  0.69835670     0.36200
C1624       C  0.03458635  0.85677205  0.64699347     0.37000
N1625       N  0.98049551  0.74395480  0.73960800    -0.43800
N1626       N  0.54495108  0.77242278  0.64451504    -0.44300
N1627       N  0.02444753  0.86312705  0.63638601    -0.41600
N1628       N  0.09234409  0.81387872  0.70830587    -0.43100
H1629       H  0.10540210  0.86962965  0.68372195     0.13100
H1630       H  0.51160462  0.80914503  0.66242126     0.09600
H1631       H  0.02019247  0.79587622  0.71107402     0.10700
H1632       H  0.50554331  0.72035115  0.67262364     0.16500
C1633       C  0.26756872  0.54051672  0.64423765    -0.01700
C1634       C  0.28408161  0.53067633  0.65127241     0.06900
C1635       C  0.27381149  0.50243036  0.65205984    -0.07700
C1636       C  0.24736395  0.48398542  0.64654265     0.04300
C1637       C  0.23018575  0.99244610  0.63771320    -0.14900
C1638       C  0.24030596  0.02071218  0.63670834    -0.08300
C1639       C  0.31125738  0.54908443  0.65911496     0.05200
C1640       C  0.31269219  0.56501904  0.67334489    -0.09400
C1641       C  0.33728080  0.58095254  0.68210258     0.00200
C1642       C  0.36127651  0.58103459  0.67673792     0.00100
C1643       C  0.35976381  0.56488737  0.66253499    -0.12900
C1644       C  0.33512528  0.54915486  0.65367487     0.00600
C1645       C  0.33690964  0.59628318  0.69689119     0.39900
C1646       C  0.33495565  0.53383488  0.63873800     0.36500
C1647       C  0.27760175  0.56944713  0.64245029     0.36200
C1648       C  0.23868590  0.45519936  0.64739760     0.37000
N1649       N  0.33646157  0.60848464  0.70874038    -0.43800
N1650       N  0.33605249  0.02012894  0.62494853    -0.44300
N1651       N  0.23185017  0.43217783  0.64809140    -0.41600
N1652       N  0.28564569  0.59263815  0.64096472    -0.43100
H1653       H  0.22694543  0.02829127  0.63268009     0.13100
H1654       H  0.28635821  0.49469747  0.65741705     0.09600
H1655       H  0.29431632  0.56457648  0.67785740     0.10700
H1656       H  0.37802004  0.56507882  0.65804840     0.16500
C1657       C  0.14688778  0.53235308  0.74577239    -0.01700
C1658       C  0.16298836  0.53925383  0.73063731     0.06900
C1659       C  0.18637313  0.56536245  0.72968660    -0.07700
C1660       C  0.19395115  0.58421482  0.74330896     0.04300
C1661       C  0.17747173  0.57760387  0.75835559    -0.14900
C1662       C  0.15408480  0.55137046  0.75927842    -0.08300
C1663       C  0.15608253  0.51973622  0.71571822     0.05200
C1664       C  0.13433246  0.01763357  0.70200513    -0.09400
C1665       C  0.12790445  0.99946100  0.68806914     0.00200
C1666       C  0.14384228  0.98696873  0.68478432     0.00100
C1667       C  0.16871460  0.49594618  0.69451384    -0.12900
C1668       C  0.17530550  0.51325105  0.70886516     0.00600
C1669       C  0.10515061  0.99457049  0.67726467     0.39900
C1670       C  0.20192943  0.52362898  0.71652100     0.36500
C1671       C  0.11566117  0.01460010  0.74027766     0.36200
C1672       C  0.21874026  0.61016319  0.74123090     0.37000
N1673       N  0.08682763  0.99067677  0.66868991    -0.43800
N1674       N  0.22330766  0.53201665  0.72259789    -0.44300
N1675       N  0.23871180  0.63085539  0.73951835    -0.41600
N1676       N  0.09392414  0.99574978  0.73986550    -0.43100
H1677       H  0.14114785  0.54556627  0.77061429     0.13100
H1678       H  0.19883557  0.57116865  0.71813016     0.09600
H1679       H  0.12227623  0.02741107  0.70415003     0.10700
H1680       H  0.18409536  0.49164698  0.68957391     0.16500
C1681       C  0.03400262  0.60841254  0.74244837    -0.01700
C1682       C  0.05706353  0.63262658  0.74801217     0.06900
C1683       C  0.06000249  0.65792999  0.74341400    -0.07700
C1684       C  0.03996364  0.65945778  0.73368807     0.04300
C1685       C  0.01621436  0.63510140  0.72844340    -0.14900
C1686       C  0.01386394  0.60978558  0.73278312    -0.08300
C1687       C  0.07910061  0.63194402  0.75782247     0.05200
C1688       C  0.09660338  0.62545234  0.74894736    -0.09400
C1689       C  0.11811299  0.62504093  0.75743354     0.00200
C1690       C  0.12225954  0.63102950  0.77531044     0.00100
C1691       C  0.10428041  0.63692818  0.78429103    -0.12900
C1692       C  0.08295272  0.63774123  0.77562190     0.00600
C1693       C  0.13527426  0.61797417  0.74741880     0.39900
C1694       C  0.06535893  0.64467602  0.78516519     0.36500
C1695       C  0.03031783  0.58192525  0.74688513     0.36200
C1696       C  0.54473970  0.68647839  0.72908580     0.37000
N1697       N  0.14900826  0.61244611  0.73930049    -0.43800
N1698       N  0.05130301  0.65033322  0.79280135    -0.44300
N1699       N  0.54871434  0.70806941  0.72548222    -0.41600
N1700       N  0.02744021  0.56073765  0.75046354    -0.43100
H1701       H  0.99585788  0.59088140  0.72907013     0.13100
H1702       H  0.07810479  0.67656127  0.74741743     0.09600
H1703       H  0.09352526  0.62089519  0.73526817     0.10700
H1704       H  0.10734968  0.64164237  0.79793997     0.16500
C1705       C  0.34867404  0.66903110  0.73746019    -0.01700
C1706       C  0.35122099  0.67129346  0.75561163     0.06900
C1707       C  0.37478819  0.67416275  0.76336234    -0.07700
C1708       C  0.39520864  0.67365571  0.75348496     0.04300
C1709       C  0.39203238  0.66967389  0.73536374    -0.14900
C1710       C  0.36913941  0.66847453  0.72748372    -0.08300
C1711       C  0.32931479  0.67005786  0.76684115     0.05200
C1712       C  0.31467330  0.64734222  0.77772459    -0.09400
C1713       C  0.29264165  0.64455742  0.78765910     0.00200
C1714       C  0.28483335  0.66467479  0.78660881     0.00100
C1715       C  0.30063599  0.68815189  0.77647481    -0.12900
C1716       C  0.32286060  0.69110010  0.76681669     0.00600
C1717       C  0.27753228  0.62020560  0.79799170     0.39900
C1718       C  0.33889353  0.71591913  0.75704101     0.36500
C1719       C  0.32462366  0.66585978  0.72890271     0.36200
C1720       C  0.41928317  0.67742535  0.76238010     0.37000
N1721       N  0.26546430  0.60070439  0.80630110    -0.43800
N1722       N  0.35192735  0.73581212  0.74925287    -0.44300
N1723       N  0.43855673  0.68045157  0.76950775    -0.41600
N1724       N  0.30533877  0.66334052  0.72206012    -0.43100
H1725       H  0.36652584  0.66568649  0.71364328     0.13100
H1726       H  0.37709877  0.67654819  0.77725570     0.09600
H1727       H  0.31998881  0.63137463  0.77806181     0.10700
H1728       H  0.29527926  0.70408003  0.77583770     0.16500
C1729       C  0.37654571  0.95637732  0.10045624    -0.01700
C1730       C  0.35740716  0.94477876  0.08698337     0.06900
C1731       C  0.33879632  0.95372648  0.08402401    -0.07700
C1732       C  0.33916704  0.97432179  0.09413802     0.04300
C1733       C  0.35838045  0.98610851  0.10773500    -0.14900
C1734       C  0.37705345  0.97706708  0.11062194    -0.08300
C1735       C  0.35565862  0.92231370  0.07637478     0.05200
C1736       C  0.33333052  0.89606183  0.07879025    -0.09400
C1737       C  0.33253453  0.87355809  0.07078775     0.00200
C1738       C  0.35465618  0.87727405  0.06033283     0.00100
C1739       C  0.37579464  0.90391529  0.05670885    -0.12900
C1740       C  0.37635187  0.92644627  0.06460166     0.00600
C1741       C  0.30878870  0.84697254  0.07356205     0.39900
C1742       C  0.39844006  0.95355854  0.06067694     0.36500
C1743       C  0.39530407  0.94679747  0.10434111     0.36200
C1744       C  0.32307097  0.48191625  0.09340526     0.37000
N1745       N  0.28965055  0.82576724  0.07577992    -0.43800
N1746       N  0.41601800  0.97534236  0.05749901    -0.44300
N1747       N  0.30764067  0.48893024  0.08988196    -0.41600
N1748       N  0.41024582  0.93899022  0.10741745    -0.43100
H1749       H  0.39188732  0.98599032  0.12092880     0.13100
H1750       H  0.32409732  0.94472477  0.07363891     0.09600
H1751       H  0.31695048  0.89307051  0.08740345     0.10700
H1752       H  0.39254089  0.90707354  0.04839647     0.16500
C1753       C  0.34512357  0.65948599  0.10799161    -0.01700
C1754       C  0.33293836  0.65355732  0.09151254     0.06900
C1755       C  0.32136952  0.62701887  0.08499007    -0.07700
C1756       C  0.32220005  0.60643939  0.09450274     0.04300
C1757       C  0.33418642  0.61220055  0.11109427    -0.14900
C1758       C  0.34524046  0.63867755  0.11778996    -0.08300
C1759       C  0.33240809  0.67489158  0.08074740     0.05200
C1760       C  0.34914193  0.68460587  0.06608412    -0.09400
C1761       C  0.35019630  0.70582626  0.05608190     0.00200
C1762       C  0.33436302  0.71780077  0.06091498     0.00100
C1763       C  0.31668813  0.70692321  0.07521478    -0.12900
C1764       C  0.31546559  0.68558938  0.08499471     0.00600
C1765       C  0.36805539  0.71502909  0.04125028     0.39900
C1766       C  0.29637824  0.67470116  0.09918809     0.36500
C1767       C  0.35908419  0.68707758  0.11456492     0.36200
C1768       C  0.31122595  0.57977116  0.08672132     0.37000
N1769       N  0.38226796  0.72214112  0.02931013    -0.43800
N1770       N  0.28094740  0.66585372  0.11047811    -0.44300
N1771       N  0.30274997  0.55858057  0.08029718    -0.41600
N1772       N  0.37050347  0.70926736  0.11970165    -0.43100
H1773       H  0.35534581  0.64345404  0.13023379     0.13100
H1774       H  0.31212124  0.62253211  0.07227303     0.09600
H1775       H  0.36176975  0.67587821  0.06264141     0.10700
H1776       H  0.30378120  0.71519709  0.07892974     0.16500
C1777       C  0.42496941  0.83025782  0.11684137    -0.01700
C1778       C  0.45188718  0.83626474  0.11344010     0.06900
C1779       C  0.46017932  0.83709080  0.09629708    -0.07700
C1780       C  0.44215740  0.83222106  0.08257402     0.04300
C1781       C  0.41496803  0.82562081  0.08593755    -0.14900
C1782       C  0.40665291  0.82454666  0.10316114    -0.08300
C1783       C  0.47187244  0.84218501  0.12755736     0.05200
C1784       C  0.47581495  0.82114572  0.13386175    -0.09400
C1785       C  0.99223210  0.82477436  0.14773662     0.00200
C1786       C  0.00924683  0.85161058  0.15420432     0.00100
C1787       C  0.50608696  0.87354037  0.14775616    -0.12900
C1788       C  0.48701367  0.86850315  0.13469821     0.00600
C1789       C  0.99290264  0.80131119  0.15456695     0.39900
C1790       C  0.48311398  0.89060866  0.12887920     0.36500
C1791       C  0.41595374  0.83040404  0.13424698     0.36200
C1792       C  0.45202516  0.83368679  0.06521224     0.37000
N1793       N  0.99329789  0.78242368  0.16002154    -0.43800
N1794       N  0.47983337  0.90824786  0.12425308    -0.44300
N1795       N  0.46025595  0.83511548  0.05135447    -0.41600
N1796       N  0.40887761  0.83078987  0.14820327    -0.43100
H1797       H  0.38597120  0.81989842  0.10591306     0.13100
H1798       H  0.48093172  0.84185648  0.09363483     0.09600
H1799       H  0.96063463  0.79969329  0.12959271     0.10700
H1800       H  0.51757811  0.89402282  0.15298417     0.16500
C1801       C  0.99890532  0.72771241  0.18801949    -0.01700
C1802       C  0.47208421  0.71705683  0.18995656     0.06900
C1803       C  0.46102185  0.73199332  0.19751784    -0.07700
C1804       C  0.47797147  0.75896750  0.20313258     0.04300
C1805       C  0.00520935  0.76990958  0.20092949    -0.14900
C1806       C  0.01594014  0.75424680  0.19394413    -0.08300
C1807       C  0.45376390  0.68973767  0.18242345     0.05200
C1808       C  0.45366542  0.66665181  0.18928788    -0.09400
C1809       C  0.43788502  0.64080254  0.18178775     0.00200
C1810       C  0.42194471  0.63787299  0.16707376     0.00100
C1811       C  0.42206734  0.66105484  0.16030600    -0.12900
C1812       C  0.43775200  0.68678477  0.16780688     0.00600
C1813       C  0.43737019  0.61755890  0.18996589     0.39900
C1814       C  0.43749240  0.70992904  0.16004371     0.36500
C1815       C  0.01105109  0.71358330  0.17955691     0.36200
C1816       C  0.46537770  0.77402271  0.20955035     0.37000
N1817       N  0.43686056  0.59892937  0.19659511    -0.43800
N1818       N  0.43717892  0.72841454  0.15382461    -0.44300
N1819       N  0.45523803  0.78609633  0.21461228    -0.41600
N1820       N  0.02065233  0.70223784  0.17266860    -0.43100
H1821       H  0.03782620  0.76310057  0.19250611     0.13100
H1822       H  0.43903704  0.72283067  0.19849282     0.09600
H1823       H  0.46591144  0.66887729  0.20056895     0.10700
H1824       H  0.40982436  0.65906940  0.14906139     0.16500
C1825       C  0.16346718  0.93738981  0.15107292    -0.01700
C1826       C  0.18385610  0.95852201  0.16098931     0.06900
C1827       C  0.17722399  0.96457820  0.17719792    -0.07700
C1828       C  0.15079343  0.94918755  0.18392989     0.04300
C1829       C  0.13034727  0.92739111  0.17419958    -0.14900
C1830       C  0.13700901  0.92218488  0.15765327    -0.08300
C1831       C  0.21246094  0.97389737  0.15492925     0.05200
C1832       C  0.22050716  0.48637612  0.13931616    -0.09400
C1833       C  0.24789292  0.50073906  0.13405949     0.00200
C1834       C  0.26884807  0.50687884  0.14618833     0.00100
C1835       C  0.26010763  0.98677576  0.15753331    -0.12900
C1836       C  0.23311620  0.97098131  0.16304909     0.00600
C1837       C  0.25353730  0.50874233  0.11618679     0.39900
C1838       C  0.22719231  0.95187042  0.17701229     0.36500
C1839       C  0.16962110  0.92998687  0.13453508     0.36200
C1840       C  0.14609309  0.95499628  0.20130999     0.37000
N1841       N  0.25759634  0.51461468  0.10174677    -0.43800
N1842       N  0.22279898  0.93660559  0.18818764    -0.44300
N1843       N  0.14281070  0.95979230  0.21532035    -0.41600
N1844       N  0.17468142  0.92404570  0.12132893    -0.43100
H1845       H  0.12168090  0.90554085  0.14998886     0.13100
H1846       H  0.19303263  0.98087942  0.18483625     0.09600
H1847       H  0.20462359  0.48251263  0.13005823     0.10700
H1848       H  0.27595122  0.98477940  0.16410635     0.16500
C1849       C  0.11081358  0.93410076  0.27830442    -0.01700
C1850       C  0.11604608  0.96119696  0.27700374     0.06900
C1851       C  0.11005451  0.96998570  0.26155192    -0.07700
C1852       C  0.09812225  0.95196194  0.24765052     0.04300
C1853       C  0.09221659  0.92444180  0.24903532    -0.14900
C1854       C  0.09914882  0.91610805  0.26441977    -0.08300
C1855       C  0.12758952  0.98051725  0.29172708     0.05200
C1856       C  0.15460715  0.00204153  0.29085660    -0.09400
C1857       C  0.16902408  0.50937434  0.30824464     0.00200
C1858       C  0.15341066  0.51480254  0.32024016     0.00100
C1859       C  0.12508792  0.50254673  0.31756993    -0.12900
C1860       C  0.11225130  0.97712575  0.30678220     0.00600
C1861       C  0.19811020  0.52086553  0.31006803     0.39900
C1862       C  0.08405011  0.95576419  0.30804389     0.36500
C1863       C  0.11723098  0.92429715  0.29382043     0.36200
C1864       C  0.09262121  0.96259133  0.23214727     0.37000
N1865       N  0.22143712  0.53007543  0.31146023    -0.43800
N1866       N  0.06148151  0.93857776  0.30898847    -0.44300
N1867       N  0.08838406  0.97127327  0.21973704    -0.41600
N1868       N  0.12230039  0.91647767  0.30629958    -0.43100
H1869       H  0.09493721  0.89524990  0.26581013     0.13100
H1870       H  0.11436054  0.99091942  0.26045476     0.09600
H1871       H  0.16640126  0.00474666  0.27923186     0.10700
H1872       H  0.11275074  0.50655974  0.32650491     0.16500
C1873       C  0.32949132  0.83469615  0.38314859    -0.01700
C1874       C  0.35670411  0.84047642  0.38420985     0.06900
C1875       C  0.37473025  0.85498413  0.37074219    -0.07700
C1876       C  0.36604927  0.86338644  0.35618326     0.04300
C1877       C  0.33843100  0.85701143  0.35473342    -0.14900
C1878       C  0.32055932  0.84278548  0.36852358    -0.08300
C1879       C  0.36716353  0.83224885  0.39940029     0.05200
C1880       C  0.36365838  0.80584946  0.40019586    -0.09400
C1881       C  0.37540553  0.79826844  0.41355378     0.00200
C1882       C  0.39124880  0.81743774  0.42648843     0.00100
C1883       C  0.39345697  0.84344109  0.42599289    -0.12900
C1884       C  0.38181033  0.85093882  0.41261533     0.00600
C1885       C  0.37080020  0.77071767  0.41360876     0.39900
C1886       C  0.38557430  0.87817464  0.41250429     0.36500
C1887       C  0.31056198  0.82091146  0.39708901     0.36200
C1888       C  0.38626112  0.87875142  0.34314655     0.37000
N1889       N  0.36722934  0.74867693  0.41384046    -0.43800
N1890       N  0.38856432  0.89999787  0.41238333    -0.44300
N1891       N  0.40257583  0.89114088  0.33277265    -0.41600
N1892       N  0.29550897  0.81001574  0.40834965    -0.43100
H1893       H  0.29942383  0.83779583  0.36791019     0.13100
H1894       H  0.39582582  0.85984986  0.37165540     0.09600
H1895       H  0.35212302  0.79126767  0.39013851     0.10700
H1896       H  0.40517719  0.85848144  0.43577480     0.16500
C1897       C  0.35131613  0.97206936  0.24774041    -0.01700
C1898       C  0.33948464  0.96284859  0.23135647     0.06900
C1899       C  0.32201661  0.93477545  0.22879513    -0.07700
C1900       C  0.31658293  0.91586339  0.24214402     0.04300
C1901       C  0.32912818  0.92490235  0.25849146    -0.14900
C1902       C  0.34604872  0.95320007  0.26112090    -0.08300
C1903       C  0.34601261  0.98198753  0.21649941     0.05200
C1904       C  0.36510035  0.98395138  0.20422363    -0.09400
C1905       C  0.37680313  0.50929314  0.19517441     0.00200
C1906       C  0.36114464  0.52173907  0.19095069     0.00100
C1907       C  0.33915473  0.51680261  0.20181882    -0.12900
C1908       C  0.33358628  0.99809187  0.21438359     0.00600
C1909       C  0.40063242  0.51455760  0.18534704     0.39900
C1910       C  0.31366739  0.99663296  0.22662348     0.36500
C1911       C  0.36949016  0.00078349  0.25092285     0.36200
C1912       C  0.29732077  0.88743011  0.23880055     0.37000
N1913       N  0.41976681  0.51877418  0.17750783    -0.43800
N1914       N  0.29770693  0.99548969  0.23643847    -0.44300
N1915       N  0.28176471  0.86468310  0.23610930    -0.41600
N1916       N  0.36977039  0.52359853  0.26064009    -0.43100
H1917       H  0.35572845  0.96060189  0.27354102     0.13100
H1918       H  0.31260048  0.92761323  0.21627511     0.09600
H1919       H  0.37488891  0.97177699  0.20589103     0.10700
H1920       H  0.32685151  0.52605763  0.19881793     0.16500
C1921       C  0.42080501  0.88281933  0.26475935    -0.01700
C1922       C  0.41698484  0.85744379  0.25906253     0.06900
C1923       C  0.39441785  0.83326043  0.26504577    -0.07700
C1924       C  0.37470075  0.83408495  0.27549083     0.04300
C1925       C  0.37677957  0.85953507  0.27940440    -0.14900
C1926       C  0.40052597  0.88370965  0.27453099    -0.08300
C1927       C  0.43727120  0.85569689  0.24787725     0.05200
C1928       C  0.44978562  0.84141389  0.25402279    -0.09400
C1929       C  0.47100851  0.84149402  0.24487834     0.00200
C1930       C  0.48097770  0.85721909  0.22952057     0.00100
C1931       C  0.46678876  0.86950968  0.22258781    -0.12900
C1932       C  0.44469991  0.86840264  0.23151472     0.00600
C1933       C  0.48201828  0.82517017  0.25170892     0.39900
C1934       C  0.42977768  0.88015237  0.22365137     0.36500
C1935       C  0.44566407  0.90812283  0.26117919     0.36200
C1936       C  0.35329207  0.80861666  0.28249118     0.37000
N1937       N  0.49073345  0.81200583  0.25714959    -0.43800
N1938       N  0.41758839  0.88933288  0.21736771    -0.44300
N1939       N  0.33650986  0.78821053  0.28833764    -0.41600
N1940       N  0.46567375  0.92836641  0.25844080    -0.43100
H1941       H  0.40308282  0.90344531  0.27800571     0.13100
H1942       H  0.39221960  0.81367476  0.26153956     0.09600
H1943       H  0.44336764  0.83066485  0.26626055     0.10700
H1944       H  0.47343165  0.88069964  0.21051950     0.16500
C1945       C  0.13269455  0.81986837  0.24665707    -0.01700
C1946       C  0.16026632  0.84041064  0.24532949     0.06900
C1947       C  0.16788368  0.86125531  0.23297270    -0.07700
C1948       C  0.14827449  0.86232777  0.22240334     0.04300
C1949       C  0.12045244  0.84242040  0.22430217    -0.14900
C1950       C  0.11318798  0.82104242  0.23624751    -0.08300
C1951       C  0.18131962  0.84016527  0.25664748     0.05200
C1952       C  0.18713518  0.81887030  0.25489904    -0.09400
C1953       C  0.20716922  0.81809477  0.26505505     0.00200
C1954       C  0.22149351  0.83866308  0.27739344     0.00100
C1955       C  0.21531237  0.85965271  0.27945899    -0.12900
C1956       C  0.19539226  0.86057783  0.26918188     0.00600
C1957       C  0.21315922  0.79634074  0.26236022     0.39900
C1958       C  0.18979405  0.88264747  0.27166044     0.36500
C1959       C  0.12373150  0.79790423  0.25906553     0.36200
C1960       C  0.15707135  0.88454326  0.21025474     0.37000
N1961       N  0.21797109  0.77890978  0.26021298    -0.43800
N1962       N  0.18531801  0.90034444  0.27363081    -0.44300
N1963       N  0.16390521  0.90219943  0.20040727    -0.41600
N1964       N  0.11651152  0.78025827  0.26896947    -0.43100
H1965       H  0.09194950  0.80538891  0.23779228     0.13100
H1966       H  0.18919208  0.87687908  0.23172222     0.09600
H1967       H  0.17633451  0.80310231  0.24532041     0.10700
H1968       H  0.22675764  0.87586256  0.28866586     0.16500
C1969       C  0.24261668  0.73270942  0.33230159    -0.01700
C1970       C  0.24187579  0.71358153  0.32038869     0.06900
C1971       C  0.25115994  0.72216047  0.30344227    -0.07700
C1972       C  0.26095313  0.74944289  0.29828616     0.04300
C1973       C  0.26142503  0.76859535  0.31025599    -0.14900
C1974       C  0.25204506  0.75963013  0.32717660    -0.08300
C1975       C  0.23166644  0.68477194  0.32578355     0.05200
C1976       C  0.20464691  0.66916725  0.33165551    -0.09400
C1977       C  0.19519852  0.64347596  0.33931077     0.00200
C1978       C  0.21283294  0.63258984  0.34085450     0.00100
C1979       C  0.23965956  0.64797322  0.33441756    -0.12900
C1980       C  0.24916918  0.67383724  0.32703305     0.00600
C1981       C  0.16794622  0.62973480  0.34641001     0.39900
C1982       C  0.27736133  0.68931926  0.32167770     0.36500
C1983       C  0.23465090  0.72545373  0.35011184     0.36200
C1984       C  0.27105187  0.75721145  0.28089757     0.37000
N1985       N  0.14616464  0.61887482  0.35219762    -0.43800
N1986       N  0.29997613  0.70169866  0.31743126    -0.44300
N1987       N  0.27926751  0.76335019  0.26696416    -0.41600
N1988       N  0.22832519  0.71964392  0.36437629    -0.43100
H1989       H  0.25219177  0.77378418  0.33666910     0.13100
H1990       H  0.25083645  0.70753010  0.29426692     0.09600
H1991       H  0.19122055  0.67766039  0.33089736     0.10700
H1992       H  0.25350730  0.64001373  0.33540455     0.16500
C1993       C  0.29032781  0.96574896  0.33865133    -0.01700
C1994       C  0.26851941  0.95441997  0.35056243     0.06900
C1995       C  0.25714863  0.92706236  0.35556260    -0.07700
C1996       C  0.26616448  0.91047009  0.34812373     0.04300
C1997       C  0.28695453  0.92135070  0.33546287    -0.14900
C1998       C  0.29960104  0.94920533  0.33130099    -0.08300
C1999       C  0.25482970  0.96957748  0.35609185     0.05200
C2000       C  0.23629059  0.97066724  0.34469663    -0.09400
C2001       C  0.22299230  0.98505649  0.34891950     0.00200
C2002       C  0.22968266  0.49919758  0.36681642     0.00100
C2003       C  0.25357831  0.50414485  0.37541968    -0.12900
C2004       C  0.26665332  0.48932652  0.37120644     0.00600
C2005       C  0.20324143  0.98420965  0.33677068     0.39900
C2006       C  0.29104696  0.49495450  0.38043227     0.36500
C2007       C  0.30267351  0.99397388  0.33332518     0.36200
C2008       C  0.25362680  0.88224886  0.35357867     0.37000
N2009       N  0.18736346  0.98324423  0.32698402    -0.43800
N2010       N  0.31062902  0.49954172  0.38783252    -0.44300
N2011       N  0.24369888  0.85964164  0.35790739    -0.41600
N2012       N  0.31254213  0.01660402  0.32906390    -0.43100
H2013       H  0.31567521  0.95766004  0.32166602     0.13100
H2014       H  0.24044038  0.91840113  0.36475385     0.09600
H2015       H  0.23222406  0.96018536  0.33240611     0.10700
H2016       H  0.26253179  0.52020924  0.38501102     0.16500
C2017       C  0.38278489  0.51578751  0.80510987    -0.01700
C2018       C  0.36688382  0.51855778  0.79210571     0.06900
C2019       C  0.33838871  0.50184700  0.79284941    -0.07700
C2020       C  0.32691448  0.97833623  0.80483681     0.04300
C2021       C  0.34271040  0.97915022  0.81928532    -0.14900
C2022       C  0.37101480  0.99779754  0.81880365    -0.08300
C2023       C  0.37962563  0.53840535  0.77752868     0.05200
C2024       C  0.37552556  0.52857392  0.76054649    -0.09400
C2025       C  0.38819879  0.54627149  0.74651776     0.00200
C2026       C  0.40585321  0.57465037  0.74934759     0.00100
C2027       C  0.40914171  0.58448373  0.76636896    -0.12900
C2028       C  0.39596081  0.56682450  0.78029981     0.00600
C2029       C  0.38289521  0.53445101  0.72947155     0.39900
C2030       C  0.39894943  0.57847981  0.79727659     0.36500
C2031       C  0.41221607  0.53158694  0.80477567     0.36200
C2032       C  0.29803342  0.95919130  0.80374387     0.37000
N2033       N  0.37851525  0.52498617  0.71580358    -0.43800
N2034       N  0.40134944  0.58781217  0.81088304    -0.44300
N2035       N  0.27489663  0.94377655  0.80276497    -0.41600
N2036       N  0.43579193  0.54442609  0.80462432    -0.43100
H2037       H  0.38381216  0.99850798  0.82943058     0.13100
H2038       H  0.32599754  0.50375346  0.78287461     0.09600
H2039       H  0.36264180  0.50682650  0.75825822     0.10700
H2040       H  0.42185226  0.60619076  0.76885122     0.16500
C2041       C  0.23215479  0.50971374  0.86975053    -0.01700
C2042       C  0.24273151  0.52853918  0.85597629     0.06900
C2043       C  0.26212173  0.02789921  0.84388129    -0.07700
C2044       C  0.27540312  0.01373160  0.84878134     0.04300
C2045       C  0.26578980  0.99579062  0.86308615    -0.14900
C2046       C  0.24465810  0.49451230  0.87427286    -0.08300
C2047       C  0.23037882  0.54505465  0.85045814     0.05200
C2048       C  0.24512340  0.57324315  0.85325784    -0.09400
C2049       C  0.23612416  0.59037817  0.84665476     0.00200
C2050       C  0.21166792  0.57924276  0.83685536     0.00100
C2051       C  0.19666183  0.55079120  0.83434537    -0.12900
C2052       C  0.20578400  0.53369599  0.84108961     0.00600
C2053       C  0.25339353  0.61939147  0.84950133     0.39900
C2054       C  0.18355995  0.00066111  0.83819879     0.36500
C2055       C  0.20848669  0.50559674  0.87930170     0.36200
C2056       C  0.29921560  0.01844469  0.83909669     0.37000
N2057       N  0.26731025  0.64260312  0.85181141    -0.43800
N2058       N  0.16962629  0.97721462  0.83709419    -0.44300
N2059       N  0.31833329  0.02233515  0.83135896    -0.41600
N2060       N  0.18946743  0.50225177  0.88692998    -0.43100
H2061       H  0.23597665  0.47944292  0.88452304     0.13100
H2062       H  0.26966036  0.04164922  0.83288985     0.09600
H2063       H  0.26422094  0.58198464  0.86030822     0.10700
H2064       H  0.17793314  0.54188074  0.82692240     0.16500
C2065       C  0.24909168  0.81471232  0.84120584    -0.01700
C2066       C  0.26149703  0.81197068  0.82616470     0.06900
C2067       C  0.28484852  0.83488076  0.81951680    -0.07700
C2068       C  0.29618346  0.86023493  0.82777320     0.04300
C2069       C  0.28388467  0.86290694  0.84292372    -0.14900
C2070       C  0.26046658  0.83997731  0.84948459    -0.08300
C2071       C  0.25268447  0.78481989  0.81850147     0.05200
C2072       C  0.22640807  0.76918580  0.81146585    -0.09400
C2073       C  0.21717511  0.74243954  0.80557276     0.00200
C2074       C  0.23474406  0.73142793  0.80638072     0.00100
C2075       C  0.26135433  0.74775166  0.81274511    -0.12900
C2076       C  0.27017188  0.77385321  0.81908320     0.00600
C2077       C  0.18920041  0.72623825  0.80000674     0.39900
C2078       C  0.29656145  0.78816641  0.82733409     0.36500
C2079       C  0.22504232  0.79187801  0.84860659     0.36200
C2080       C  0.31980591  0.88320948  0.82011721     0.37000
N2081       N  0.16672163  0.71321620  0.79565231    -0.43800
N2082       N  0.31756622  0.79961048  0.83408270    -0.44300
N2083       N  0.33874189  0.90159503  0.81396180    -0.41600
N2084       N  0.20564682  0.77372691  0.85453091    -0.43100
H2085       H  0.25101003  0.84182423  0.86118832     0.13100
H2086       H  0.29447081  0.83276643  0.80796818     0.09600
H2087       H  0.21283759  0.77754248  0.81115276     0.10700
H2088       H  0.27509104  0.73960275  0.81354511     0.16500
C2089       C  0.33471522  0.90340453  0.94854861    -0.01700
C2090       C  0.33347008  0.87802892  0.94650097     0.06900
C2091       C  0.32845590  0.86615707  0.93007203    -0.07700
C2092       C  0.32520892  0.87937406  0.91566888     0.04300
C2093       C  0.32761243  0.90549774  0.91749363    -0.14900
C2094       C  0.33199083  0.91692901  0.93415198    -0.08300
C2095       C  0.33826492  0.86397137  0.96121434     0.05200
C2096       C  0.31795068  0.85072260  0.97378881    -0.09400
C2097       C  0.32194122  0.83729908  0.98779213     0.00200
C2098       C  0.34670184  0.83696379  0.98936256     0.00100
C2099       C  0.36713699  0.85063274  0.97686955    -0.12900
C2100       C  0.36305247  0.86392879  0.96286215     0.00600
C2101       C  0.30090852  0.82542524  0.00082077     0.39900
C2102       C  0.38475649  0.87784899  0.95044635     0.36500
C2103       C  0.33924217  0.91617443  0.96527017     0.36200
C2104       C  0.31867123  0.86513780  0.89937658     0.37000
N2105       N  0.28404653  0.81625912  0.01127445    -0.43800
N2106       N  0.40209584  0.88907281  0.94046295    -0.44300
N2107       N  0.31325141  0.85357757  0.88636831    -0.41600
N2108       N  0.34275381  0.92637254  0.97867731    -0.43100
H2109       H  0.33354592  0.93669710  0.93599680     0.13100
H2110       H  0.32703461  0.84638770  0.92851830     0.09600
H2111       H  0.29901103  0.85104177  0.97270379     0.10700
H2112       H  0.38627858  0.85073578  0.97796509     0.16500
C2113       C  0.98745354  0.62527435  0.03999878    -0.01700
C2114       C  0.47523221  0.63738435  0.04931966     0.06900
C2115       C  0.47872340  0.66271133  0.04398145    -0.07700
C2116       C  0.49572324  0.67704878  0.02994111     0.04300
C2117       C  0.00873683  0.66502364  0.02058290    -0.14900
C2118       C  0.00487186  0.63954351  0.02618473    -0.08300
C2119       C  0.45675970  0.62265338  0.06420392     0.05200
C2120       C  0.46302919  0.63461512  0.08065373    -0.09400
C2121       C  0.44651791  0.62114364  0.09503852     0.00200
C2122       C  0.42311715  0.59485806  0.09315768     0.00100
C2123       C  0.41669218  0.58326879  0.07654513    -0.12900
C2124       C  0.43301229  0.59691184  0.06219838     0.00600
C2125       C  0.45371388  0.63529514  0.11137047     0.39900
C2126       C  0.42448146  0.58439832  0.04543213     0.36500
C2127       C  0.98553266  0.59994657  0.04555612     0.36200
C2128       C  0.49815812  0.70295629  0.02534687     0.37000
N2129       N  0.45941943  0.64670695  0.12443457    -0.43800
N2130       N  0.41760710  0.57436764  0.03199879    -0.44300
N2131       N  0.50013017  0.72374768  0.02169497    -0.41600
N2132       N  0.98400895  0.57966844  0.05003497    -0.43100
H2133       H  0.01574267  0.63067394  0.01987742     0.13100
H2134       H  0.46793165  0.67125719  0.05077595     0.09600
H2135       H  0.48099905  0.65461105  0.08226685     0.10700
H2136       H  0.39868422  0.56339550  0.07465814     0.16500
C2137       C  0.10542543  0.64680576  0.91025236    -0.01700
C2138       C  0.12265339  0.66686808  0.89819585     0.06900
C2139       C  0.12753447  0.69369518  0.90030975    -0.07700
C2140       C  0.11546864  0.70059891  0.91385736     0.04300
C2141       C  0.09756005  0.68032891  0.92569858    -0.14900
C2142       C  0.09316573  0.65359005  0.92372805    -0.08300
C2143       C  0.13566532  0.66033403  0.88332497     0.05200
C2144       C  0.11920962  0.64012778  0.87128988    -0.09400
C2145       C  0.13062980  0.63366738  0.85713352     0.00200
C2146       C  0.15926106  0.64793493  0.85446015     0.00100
C2147       C  0.17563477  0.66822187  0.86651346    -0.12900
C2148       C  0.16423435  0.67420090  0.88084805     0.00600
C2149       C  0.11229301  0.61275537  0.84537180     0.39900
C2150       C  0.18243480  0.69389885  0.89325827     0.36500
C2151       C  0.10040711  0.61913866  0.90928692     0.36200
C2152       C  0.12245638  0.72884648  0.91542096     0.37000
N2153       N  0.09752667  0.59591124  0.83600458    -0.43800
N2154       N  0.19698975  0.70955225  0.90327904    -0.44300
N2155       N  0.12819259  0.75152347  0.91667355    -0.41600
N2156       N  0.09641670  0.59697337  0.90848951    -0.43100
H2157       H  0.07973041  0.63767372  0.93261095     0.13100
H2158       H  0.14079405  0.70938234  0.89124130     0.09600
H2159       H  0.09725268  0.62943168  0.87289596     0.10700
H2160       H  0.19760440  0.67917992  0.86495240     0.16500
C2161       C  0.39730438  0.55785406  0.91208974    -0.01700
C2162       C  0.42128872  0.55765843  0.91662128     0.06900
C2163       C  0.42498503  0.53611610  0.91117943    -0.07700
C2164       C  0.40511465  0.51472332  0.90129707     0.04300
C2165       C  0.38086780  0.51477581  0.89669548    -0.14900
C2166       C  0.37752280  0.53669348  0.90212730    -0.08300
C2167       C  0.44360494  0.58076567  0.92597863     0.05200
C2168       C  0.45055558  0.57689243  0.94270498    -0.09400
C2169       C  0.47188407  0.59856951  0.95172857     0.00200
C2170       C  0.48635402  0.62476573  0.94396290     0.00100
C2171       C  0.47911092  0.62819148  0.92711543    -0.12900
C2172       C  0.45838548  0.60652275  0.91807462     0.00600
C2173       C  0.47878277  0.59301099  0.96859853     0.39900
C2174       C  0.45334300  0.61093572  0.90040439     0.36500
C2175       C  0.39232913  0.57933600  0.91776425     0.36200
C2176       C  0.41017833  0.49294862  0.89648962     0.37000
N2177       N  0.48436690  0.58843885  0.98207747    -0.43800
N2178       N  0.44930264  0.61432259  0.88623310    -0.44300
N2179       N  0.41780342  0.98152339  0.88881722    -0.41600
N2180       N  0.38832153  0.59654690  0.92226774    -0.43100
H2181       H  0.35910322  0.53712998  0.89890510     0.13100
H2182       H  0.44360956  0.53617015  0.91456425     0.09600
H2183       H  0.43938546  0.55683700  0.94865401     0.10700
H2184       H  0.99391774  0.64696274  0.91970878     0.16500
C2185       C  0.19906419  0.87684588  0.92613587    -0.01700
C2186       C  0.18123623  0.85065966  0.91954486     0.06900
C2187       C  0.18367275  0.84489627  0.90222164    -0.07700
C2188       C  0.20443874  0.86449288  0.89167330     0.04300
C2189       C  0.22316228  0.89029509  0.89855358    -0.14900
C2190       C  0.21988380  0.89627772  0.91569907    -0.08300
C2191       C  0.15950393  0.82920976  0.93040709     0.05200
C2192       C  0.13243712  0.82154794  0.92685039    -0.09400
C2193       C  0.11104950  0.80081088  0.93627903     0.00200
C2194       C  0.11663434  0.78720032  0.94974577     0.00100
C2195       C  0.14394599  0.79560787  0.95365165    -0.12900
C2196       C  0.16532493  0.81623505  0.94398545     0.00600
C2197       C  0.08363286  0.79390051  0.93157158     0.39900
C2198       C  0.19294798  0.82273934  0.94757823     0.36500
C2199       C  0.19628684  0.88426157  0.94353022     0.36200
C2200       C  0.20680731  0.85711035  0.87420978     0.37000
N2201       N  0.06171319  0.78828964  0.92765542    -0.43800
N2202       N  0.21508895  0.82786619  0.95037612    -0.44300
N2203       N  0.20841655  0.85104852  0.86018951    -0.41600
N2204       N  0.19401820  0.89023609  0.95745141    -0.43100
H2205       H  0.23399064  0.91614954  0.92106934     0.13100
H2206       H  0.16966477  0.82483999  0.89706608     0.09600
H2207       H  0.12800169  0.83169104  0.91647299     0.10700
H2208       H  0.14858814  0.78514718  0.96370280     0.16500
C2209       C  0.45076139  0.77355569  0.01168433    -0.01700
C2210       C  0.44877874  0.76733656  0.99394278     0.06900
C2211       C  0.43178999  0.77254527  0.98345457    -0.07700
C2212       C  0.41623407  0.78315460  0.99043854     0.04300
C2213       C  0.41738372  0.78851977  0.00834644    -0.14900
C2214       C  0.43503600  0.78399679  0.01874815    -0.08300
C2215       C  0.46554330  0.75705098  0.98577408     0.05200
C2216       C  0.45630210  0.72888015  0.98570229    -0.09400
C2217       C  0.47244874  0.71886560  0.97860955     0.00200
C2218       C  0.99938209  0.73763983  0.97187882     0.00100
C2219       C  0.00821638  0.76571933  0.97140078    -0.12900
C2220       C  0.99234068  0.77588067  0.97845488     0.00600
C2221       C  0.46313385  0.69000254  0.97987609     0.39900
C2222       C  0.00263790  0.80499347  0.97809262     0.36500
C2223       C  0.46884403  0.76955375  0.02286418     0.36200
C2224       C  0.39983570  0.78900041  0.97882727     0.37000
N2225       N  0.45572524  0.66687926  0.98089646    -0.43800
N2226       N  0.01083382  0.82831294  0.97783569    -0.44300
N2227       N  0.38677066  0.79375487  0.96950956    -0.41600
N2228       N  0.48336089  0.76660176  0.03196950    -0.43100
H2229       H  0.43587710  0.78774573  0.03250681     0.13100
H2230       H  0.43086116  0.76847511  0.96972556     0.09600
H2231       H  0.43682567  0.71484304  0.99159533     0.10700
H2232       H  0.02818654  0.77990305  0.96615055     0.16500
C2233       C  0.21795666  0.75432496  0.04243967    -0.01700
C2234       C  0.20719218  0.74142500  0.02647927     0.06900
C2235       C  0.22445697  0.73927582  0.01444493    -0.07700
C2236       C  0.25193857  0.74923221  0.01809084     0.04300
C2237       C  0.26266467  0.76120952  0.03435461    -0.14900
C2238       C  0.24549523  0.76390026  0.04631267    -0.08300
C2239       C  0.17864967  0.73181212  0.02116460     0.05200
C2240       C  0.17028867  0.75110918  0.01885469    -0.09400
C2241       C  0.14527266  0.74381706  0.01110283     0.00200
C2242       C  0.12847672  0.71681714  0.00492880     0.00100
C2243       C  0.13643900  0.69728155  0.00784134    -0.12900
C2244       C  0.16105394  0.70445132  0.01618499     0.00600
C2245       C  0.13804706  0.76485742  0.00909935     0.39900
C2246       C  0.16768621  0.68336358  0.01980808     0.36500
C2247       C  0.20116079  0.75780987  0.05503469     0.36200
C2248       C  0.26886795  0.74836379  0.00440676     0.37000
N2249       N  0.13233928  0.78179700  0.00770121    -0.43800
N2250       N  0.17285771  0.66641341  0.02291057    -0.44300
N2251       N  0.28235765  0.74786476  0.99334082    -0.41600
N2252       N  0.18780163  0.76081621  0.06511881    -0.43100
H2253       H  0.25350496  0.77324404  0.05874452     0.13100
H2254       H  0.21650623  0.73038219  0.00188216     0.09600
H2255       H  0.18379589  0.77219485  0.02259858     0.10700
H2256       H  0.12328188  0.67631983  0.00374775     0.16500
O2257       O  0.54378578  0.24346080  0.97608631    -0.85100
O2258       O  0.53292367  0.20270606  0.99965687    -0.82100
C2259       C  0.52859808  0.17985400  0.00528182     0.98400
O2260       O  0.54028959  0.16806867  0.99824165    -0.82100
O2261       O  0.51678713  0.14892670  0.96628353    -0.84800
C2262       C  0.50964917  0.15030404  0.95107076     1.02900
O2263       O  0.52366224  0.17145131  0.94217688    -0.77600
O2264       O  0.51764223  0.21269764  0.95731598    -0.77700
C2265       C  0.52177733  0.23162728  0.96771941     1.02900
O2266       O  0.59852520  0.25404361  0.97261622    -0.85100
O2267       O  0.58847960  0.21757517  0.99951629    -0.82100
C2268       C  0.60227864  0.20703994  0.99454465     0.98400
O2269       O  0.59380071  0.19000676  0.98235419    -0.82200
O2270       O  0.56991309  0.16811002  0.95098958    -0.84800
C2271       C  0.58221291  0.18549216  0.93905450     1.02900
O2272       O  0.58013519  0.20678475  0.93815440    -0.77600
O2273       O  0.57412485  0.24976201  0.94972773    -0.77700
C2274       C  0.59594698  0.26285129  0.95814518     1.02800
Cr2275     Cr  0.56533187  0.22752628  0.98569784     1.93700
Cr2276     Cr  0.55530710  0.17119053  0.97415906     1.93200
Cr2277     Cr  0.54935622  0.20960331  0.94851199     1.39100
O2278       O  0.55661118  0.20254153  0.96945901    -1.22800
O2279       O  0.78233809  0.46853417  0.85554941    -0.85100
O2280       O  0.80473255  0.44507588  0.83618602    -0.82100
C2281       C  0.82975449  0.46355900  0.83579718     0.98400
O2282       O  0.84466671  0.46720752  0.84877158    -0.82100
O2283       O  0.85924661  0.47163432  0.88305039    -0.84800
C2284       C  0.85734533  0.49180313  0.88836841     1.02900
O2285       O  0.83468266  0.49085660  0.88786710    -0.77600
O2286       O  0.77967011  0.47225686  0.88346311    -0.77700
C2287       C  0.77750669  0.47917107  0.86825400     1.02900
O2288       O  0.74765675  0.41763964  0.87387140    -0.85100
O2289       O  0.77306955  0.39516321  0.85629073    -0.82100
C2290       C  0.79106077  0.39034063  0.85076828     0.98400
O2291       O  0.81594756  0.40867699  0.85132137    -0.82200
O2292       O  0.82533481  0.41362766  0.88666910    -0.84800
C2293       C  0.82461579  0.42009382  0.90218394     1.02900
O2294       O  0.82214725  0.44076785  0.90551931    -0.77600
O2295       O  0.76923644  0.42137872  0.89809798    -0.77700
C2296       C  0.74753692  0.41110966  0.88958069     1.02800
Cr2297     Cr  0.77881637  0.43229739  0.85659291     1.93700
Cr2298     Cr  0.83421780  0.44042253  0.86770530     1.93200
Cr2299     Cr  0.80173042  0.45557244  0.89220375     1.39100
O2300       O  0.80481905  0.44274086  0.87215037    -1.22800
O2301       O  0.77624177  0.31200114  0.31973483    -0.85100
O2302       O  0.80111556  0.35684175  0.33964586    -0.82100
C2303       C  0.82538249  0.36106260  0.33990081     0.98400
O2304       O  0.84074135  0.37212554  0.32701941    -0.82100
O2305       O  0.85626476  0.38357844  0.29268578    -0.84800
C2306       C  0.85254611  0.36100330  0.28691958     1.02900
O2307       O  0.82907225  0.34049466  0.28728151    -0.77600
O2308       O  0.77429428  0.30607153  0.29181257    -0.77700
C2309       C  0.77183896  0.29669408  0.30699383     1.02900
O2310       O  0.74417218  0.33206578  0.30222156    -0.85100
O2311       O  0.77281041  0.37945956  0.32056598    -0.82100
C2312       C  0.79178478  0.40095487  0.32701467     0.98400
O2313       O  0.81628523  0.40636247  0.32547651    -0.82200
O2314       O  0.82649855  0.41192863  0.28987929    -0.84800
C2315       C  0.82522328  0.40516921  0.27417801     1.02900
O2316       O  0.81939468  0.38091166  0.27039706    -0.77600
O2317       O  0.76565089  0.34837919  0.27766734    -0.77700
C2318       C  0.74408721  0.33795867  0.28640714     1.02800
Cr2319     Cr  0.77547096  0.34624544  0.31929786     1.93700
Cr2320     Cr  0.83260513  0.39126380  0.30848981     1.93200
Cr2321     Cr  0.79747230  0.34515184  0.28336567     1.39100
O2322       O  0.80162311  0.36095675  0.30364374    -1.22800
O2323       O  0.54655424  0.30937920  0.19704760    -0.85100
O2324       O  0.53614555  0.33913442  0.17339960    -0.82100
C2325       C  0.52997787  0.35654845  0.16814330     0.98400
O2326       O  0.54080666  0.37999692  0.17512070    -0.82100
O2327       O  0.51301018  0.37092005  0.20561466    -0.84800
C2328       C  0.50477598  0.36138375  0.22050264     1.02900
O2329       O  0.51957495  0.35663669  0.23034619    -0.77600
O2330       O  0.51785235  0.31155013  0.21500566    -0.77700
C2331       C  0.52370878  0.29799837  0.20462829     1.02900
O2332       O  0.60019260  0.35519874  0.20289274    -0.85100
O2333       O  0.59115712  0.38281299  0.17610573    -0.82100
C2334       C  0.60260219  0.40698490  0.18173569     0.98400
O2335       O  0.59153548  0.41317443  0.19363368    -0.82200
O2336       O  0.56329765  0.40676889  0.22360388    -0.84800
C2337       C  0.57623611  0.40255318  0.23546248     1.02900
O2338       O  0.57609768  0.38008710  0.23606250    -0.77600
O2339       O  0.57366680  0.33278472  0.22457978    -0.77700
C2340       C  0.59663342  0.34313220  0.21725535     1.02800
Cr2341     Cr  0.56778379  0.34779694  0.18849496     1.93700
Cr2342     Cr  0.55246220  0.39057751  0.19978416     1.93200
Cr2343     Cr  0.54736185  0.34634746  0.22495137     1.39100
O2344       O  0.55590941  0.36173844  0.20438509    -1.22800
O2345       O  0.81270749  0.03413301  0.15261225    -0.85100
O2346       O  0.85856307  0.05518540  0.17194308    -0.82100
C2347       C  0.86463821  0.03629279  0.17193390     0.98400
O2348       O  0.87480290  0.03204495  0.15860042    -0.82100
O2349       O  0.88380067  0.02789746  0.12379546    -0.84800
C2350       C  0.86099592  0.00904970  0.11825513     1.02900
O2351       O  0.84013319  0.01118103  0.12000456    -0.77600
O2352       O  0.80601920  0.03214562  0.12476689    -0.77700
C2353       C  0.79691677  0.02490646  0.13993390     1.02900
O2354       O  0.83058226  0.08583398  0.13511673    -0.85100
O2355       O  0.87870165  0.10619358  0.15264101    -0.82100
C2356       C  0.90128713  0.10985481  0.15782317     0.98400
O2357       O  0.90674651  0.09069141  0.15686128    -0.82200
O2358       O  0.91032686  0.08666854  0.12134061    -0.84800
C2359       C  0.90280445  0.08087359  0.10583611     1.02900
O2360       O  0.87941153  0.06076833  0.10241914    -0.77600
O2361       O  0.84817205  0.08237396  0.11065278    -0.77700
C2362       C  0.83634068  0.09207285  0.11930011     1.02800
Cr2363     Cr  0.84626551  0.06968910  0.15197144     1.93700
Cr2364     Cr  0.89179066  0.05926914  0.13994149     1.93200
Cr2365     Cr  0.84453213  0.04725373  0.11595755     1.39100
O2366       O  0.86083277  0.05883573  0.13599517    -1.22800
O2367       O  0.80261956  0.25785221  0.03153858    -0.85100
O2368       O  0.83325328  0.29934342  0.00839325    -0.82100
C2369       C  0.85213798  0.32212719  0.00295971     0.98400
O2370       O  0.87569173  0.33324700  0.00982716    -0.82100
O2371       O  0.87044807  0.35510358  0.04025337    -0.84800
C2372       C  0.85832849  0.35400944  0.05415848     1.02900
O2373       O  0.84858713  0.33304465  0.06364070    -0.77600
O2374       O  0.80433293  0.28948060  0.04824079    -0.77700
C2375       C  0.79117045  0.26992737  0.03796016     1.02900
O2376       O  0.84719093  0.24968827  0.03722007    -0.85100
O2377       O  0.87471278  0.28534009  0.00996248    -0.82100
C2378       C  0.89847000  0.29528534  0.01582692     0.98400
O2379       O  0.90549558  0.31109467  0.02860794    -0.82200
O2380       O  0.90170651  0.33547131  0.05828176    -0.84800
C2381       C  0.89465787  0.31926202  0.07103800     1.02900
O2382       O  0.87069620  0.29919783  0.07226977    -0.77600
O2383       O  0.82552760  0.25449034  0.05928957    -0.77700
C2384       C  0.83516906  0.24135514  0.05159111     1.02800
Cr2385     Cr  0.84066088  0.27506224  0.02300869     1.93700
Cr2386     Cr  0.88600475  0.33132192  0.03455738     1.93200
Cr2387     Cr  0.83849234  0.29454499  0.05927425     1.39100
O2388       O  0.85526333  0.30060569  0.03909142    -1.22800
O2389       O  0.73622494  0.18964003  0.81347413    -0.85100
O2390       O  0.69455654  0.15738690  0.83547921    -0.82100
C2391       C  0.67069802  0.13931022  0.83977880     0.98400
O2392       O  0.65819160  0.11711752  0.83124031    -0.82100
O2393       O  0.64254762  0.12577779  0.79888485    -0.84800
C2394       C  0.64531393  0.13551853  0.78385157     1.02900
O2395       O  0.66749233  0.14392700  0.77596251    -0.77600
O2396       O  0.70719070  0.18800412  0.79424923    -0.77700
C2397       C  0.72516199  0.20109418  0.80550576     1.02900
O2398       O  0.74621592  0.14507594  0.80753126    -0.85100
O2399       O  0.70797996  0.11552054  0.83286905    -0.82100
C2400       C  0.69610516  0.09155537  0.82703737     0.98400
O2401       O  0.68015626  0.08559551  0.81437073    -0.82200
O2402       O  0.66270741  0.09316250  0.78272958    -0.84800
C2403       C  0.68097683  0.09964524  0.77117515     1.02900
O2404       O  0.70263757  0.12267177  0.77172403    -0.77600
O2405       O  0.74474502  0.16962939  0.78620189    -0.77700
C2406       C  0.75638148  0.15853743  0.79383375     1.02800
Cr2407     Cr  0.71940312  0.15078787  0.82095592     1.93700
Cr2408     Cr  0.66340560  0.10771430  0.80669392     1.93200
Cr2409     Cr  0.70478585  0.15478836  0.78369144     1.39100
O2410       O  0.69556629  0.13757061  0.80382424    -1.22800
O2411       O  0.96276265  0.18656465  0.68923077    -0.85100
O2412       O  0.94157003  0.14235081  0.66891551    -0.82100
C2413       C  0.96138410  0.13770409  0.66860583     0.98400
O2414       O  0.96523585  0.12616598  0.68139739    -0.82100
O2415       O  0.96900722  0.11395419  0.71557385    -0.84800
C2416       C  0.98824234  0.13614557  0.72160112     1.02900
O2417       O  0.98597530  0.15715975  0.72173113    -0.77600
O2418       O  0.96585146  0.19220049  0.71719957    -0.77700
C2419       C  0.97308320  0.20169612  0.70206750     1.02900
O2420       O  0.91148969  0.16890832  0.70708787    -0.85100
O2421       O  0.89082899  0.12138160  0.68851408    -0.82100
C2422       C  0.88701973  0.09915851  0.68245796     0.98400
O2423       O  0.90618024  0.09360532  0.68286027    -0.82200
O2424       O  0.91070210  0.08705463  0.71814984    -0.84800
C2425       C  0.91635588  0.09331109  0.73385265     1.02900
O2426       O  0.93545947  0.11702478  0.73791754    -0.77600
O2427       O  0.91463517  0.14931491  0.73065254    -0.77700
C2428       C  0.90516799  0.16208159  0.72278445     1.02800
Cr2429     Cr  0.92729158  0.15356452  0.68956888     1.93700
Cr2430     Cr  0.93779006  0.10732221  0.69975023     1.93200
Cr2431     Cr  0.94974361  0.15294516  0.72532224     1.39100
O2432       O  0.93821498  0.13796411  0.70490516    -1.22800
O2433       O  0.94884475  0.25528110  0.47670309    -0.85100
O2434       O  0.95995301  0.29722823  0.49921173    -0.82100
C2435       C  0.96530226  0.32100471  0.50359430     0.98400
O2436       O  0.95262586  0.33187740  0.49664076    -0.82100
O2437       O  0.97392586  0.34929200  0.46417205    -0.84800
C2438       C  0.98042940  0.34733448  0.44889820     1.02900
O2439       O  0.96711303  0.32531533  0.44074165    -0.77600
O2440       O  0.97452619  0.28585701  0.45748015    -0.77700
C2441       C  0.97078015  0.26737695  0.46818893     1.02900
O2442       O  0.89343987  0.24420433  0.47331469    -0.85100
O2443       O  0.90399246  0.28182793  0.49961899    -0.82100
C2444       C  0.88941341  0.29117556  0.49404480     0.98400
O2445       O  0.89771233  0.30747207  0.48146606    -0.82200
O2446       O  0.91984276  0.32731836  0.44982895    -0.84800
C2447       C  0.90728131  0.30879654  0.43861186     1.02900
O2448       O  0.91058006  0.28824692  0.43807801    -0.77600
O2449       O  0.91822957  0.24720489  0.45095194    -0.77700
C2450       C  0.89567600  0.23527703  0.45878855     1.02800
Cr2451     Cr  0.92705813  0.27135725  0.48595073     1.93700
Cr2452     Cr  0.93596087  0.32663767  0.47287271     1.93200
Cr2453     Cr  0.94225630  0.28732930  0.44839481     1.39100
O2454       O  0.93532976  0.29546106  0.46909231    -1.22800
O2455       O  0.70981900  0.02828881  0.35643242    -0.85100
O2456       O  0.68692777  0.05162752  0.33754350    -0.82100
C2457       C  0.66191097  0.03325226  0.33699960     0.98400
O2458       O  0.64683071  0.02900741  0.35002895    -0.82100
O2459       O  0.63236924  0.02443611  0.38466414    -0.84800
C2460       C  0.63420845  0.00404366  0.38962772     1.02900
O2461       O  0.65670931  0.00476815  0.38884499    -0.77600
O2462       O  0.71135159  0.02264143  0.38419844    -0.77700
C2463       C  0.71379382  0.01647015  0.36884596     1.02900
O2464       O  0.74412479  0.07911469  0.37480830    -0.85100
O2465       O  0.71833123  0.10134280  0.35722375    -0.82100
C2466       C  0.70023862  0.10591295  0.35154784     0.98400
O2467       O  0.67533442  0.08767144  0.35263608    -0.82200
O2468       O  0.66653085  0.08228176  0.38803203    -0.84800
C2469       C  0.66737371  0.07569935  0.40352198     1.02900
O2470       O  0.66991493  0.05502028  0.40677136    -0.77600
O2471       O  0.72266773  0.07359958  0.39938575    -0.77700
C2472       C  0.74421688  0.08479678  0.39066525     1.02800
Cr2473     Cr  0.71291095  0.06430276  0.35770552     1.93700
Cr2474     Cr  0.65737779  0.05566404  0.36909388     1.93200
Cr2475     Cr  0.68987017  0.03983618  0.39325524     1.39100
O2476       O  0.68689489  0.05336297  0.37335546    -1.22800
O2477       O  0.68910384  0.45361211  0.64484379    -0.85100
O2478       O  0.65625597  0.46223632  0.66683086    -0.82100
C2479       C  0.63751323  0.46672750  0.67165360     0.98400
O2480       O  0.61495675  0.45610683  0.66343679    -0.82100
O2481       O  0.62136402  0.48102061  0.63150229    -0.84800
C2482       C  0.63049607  0.48854021  0.61643984     1.02900
O2483       O  0.64200304  0.47750047  0.60863202    -0.77600
O2484       O  0.68724673  0.48196514  0.62642696    -0.77700
C2485       C  0.70075024  0.47618843  0.63691890     1.02900
O2486       O  0.64490589  0.39918617  0.63845289    -0.85100
O2487       O  0.61541860  0.40691682  0.66436641    -0.82100
C2488       C  0.59183800  0.39353445  0.65813097     0.98400
O2489       O  0.58549500  0.40308977  0.64546212    -0.82200
O2490       O  0.59127060  0.42887067  0.61456911    -0.84800
C2491       C  0.59889066  0.41849819  0.60274326     1.02900
O2492       O  0.62262401  0.42165421  0.60307129    -0.77600
O2493       O  0.66904881  0.42621983  0.61737050    -0.77700
C2494       C  0.65790504  0.40298239  0.62449979     1.02800
Cr2495     Cr  0.65029126  0.43121200  0.65228269     1.93700
Cr2496     Cr  0.60569902  0.44224258  0.63864846     1.93200
Cr2497     Cr  0.65403167  0.45137694  0.61549892     1.39100
O2498       O  0.63657949  0.44192401  0.63548188    -1.22800
O2499       O  0.69039367  0.23612916  0.53152077    -0.85100
O2500       O  0.65782727  0.19798405  0.50770202    -0.82100
C2501       C  0.63805439  0.17614495  0.50194392     0.98400
O2502       O  0.61490295  0.16588297  0.50921328    -0.82100
O2503       O  0.61981526  0.14321674  0.53959160    -0.84800
C2504       C  0.62912572  0.14298435  0.55433413     1.02900
O2505       O  0.63686538  0.16304420  0.56436536    -0.77600
O2506       O  0.68438965  0.20393548  0.54974268    -0.77700
C2507       C  0.69909222  0.22202267  0.53884230     1.04100
O2508       O  0.64867774  0.25010148  0.53729093    -0.85100
O2509       O  0.61938249  0.21617330  0.51032391    -0.82100
C2510       C  0.59545934  0.20650077  0.51602926     0.98400
O2511       O  0.58721099  0.18926711  0.52813028    -0.82200
O2512       O  0.58904061  0.16326762  0.55758206    -0.84800
C2513       C  0.59484482  0.17991902  0.56993331     1.02900
O2514       O  0.61849840  0.20068632  0.57097961    -0.77600
O2515       O  0.66820588  0.24282565  0.55941888    -0.77700
C2516       C  0.65998635  0.25718766  0.55187775     1.02800
Cr2517     Cr  0.65282092  0.22324178  0.52293467     1.93700
Cr2518     Cr  0.60509961  0.16770212  0.53394365     1.93200
Cr2519     Cr  0.65095490  0.20230832  0.55956185     1.39100
O2520       O  0.63623258  0.19755536  0.53881982    -1.22800
C2521       C  0.60531272  0.06957659  0.56594332    -0.01700
C2522       C  0.62532693  0.07282031  0.57802824     0.06900
C2523       C  0.64800886  0.09869457  0.58073046    -0.07700
C2524       C  0.65043490  0.12155665  0.57222993     0.04300
C2525       C  0.62968475  0.11873050  0.56083074    -0.14900
C2526       C  0.60759827  0.09255469  0.55743787    -0.08300
C2527       C  0.62398555  0.04952187  0.58754187     0.05200
C2528       C  0.62648849  0.02972383  0.57826109    -0.09400
C2529       C  0.62806326  0.00879813  0.58676441     0.00200
C2530       C  0.62822362  0.00810398  0.60509290     0.00100
C2531       C  0.62468675  0.02746324  0.61434177    -0.12900
C2532       C  0.62231701  0.04794727  0.60570349     0.00600
C2533       C  0.62050619  0.48489421  0.57880541     0.39900
C2534       C  0.61751602  0.06672248  0.61566208     0.36500
C2535       C  0.58185916  0.04308447  0.56260269     0.36200
C2536       C  0.67461813  0.14761468  0.57537421     0.37000
N2537       N  0.61830174  0.46670208  0.57070356    -0.43800
N2538       N  0.61338007  0.08158347  0.62363877    -0.44300
N2539       N  0.69407916  0.16837862  0.57795964    -0.41600
N2540       N  0.56314959  0.02177927  0.55994343    -0.43100
H2541       H  0.59155149  0.09020086  0.54876944     0.13100
H2542       H  0.66386170  0.10100173  0.58957236     0.09600
H2543       H  0.62739727  0.03076106  0.56426439     0.10700
H2544       H  0.62386276  0.02668394  0.62833441     0.16500
C2545       C  0.68354091  0.37002138  0.59324165    -0.01700
C2546       C  0.66296991  0.34238908  0.59403978     0.06900
C2547       C  0.64215423  0.33398371  0.60642775    -0.07700
C2548       C  0.64088163  0.35301661  0.61742718     0.04300
C2549       C  0.66061400  0.38103671  0.61590705    -0.14900
C2550       C  0.68222261  0.38900134  0.60409334    -0.08300
C2551       C  0.66299324  0.32198184  0.58209917     0.05200
C2552       C  0.68420866  0.31610922  0.58320275    -0.09400
C2553       C  0.68460710  0.29632012  0.57265234     0.00200
C2554       C  0.66316596  0.28171532  0.56076826     0.00100
C2555       C  0.64262472  0.28858853  0.55906670    -0.12900
C2556       C  0.64234273  0.30851284  0.56965740     0.00600
C2557       C  0.70728957  0.29148789  0.57430047     0.39900
C2558       C  0.62064510  0.31471064  0.56763375     0.36500
C2559       C  0.70561002  0.37961978  0.58090278     0.36200
C2560       C  0.61857294  0.34328571  0.62957162     0.37000
N2561       N  0.72546332  0.28763257  0.57563107    -0.43800
N2562       N  0.60325026  0.31967488  0.56602481    -0.44300
N2563       N  0.60075312  0.33540024  0.63935791    -0.41600
N2564       N  0.72333461  0.38729362  0.57105893    -0.43100
H2565       H  0.69774900  0.41028293  0.60292823     0.13100
H2566       H  0.62670868  0.31263936  0.60729372     0.09600
H2567       H  0.70049658  0.32690140  0.59264880     0.10700
H2568       H  0.62610453  0.27754963  0.54999574     0.16500
C2569       C  0.67316099  0.16248066  0.46453963    -0.01700
C2570       C  0.65228458  0.13741464  0.45810147     0.06900
C2571       C  0.62634466  0.12538524  0.46564559    -0.07700
C2572       C  0.62092744  0.13771845  0.47959204     0.04300
C2573       C  0.64200993  0.16271829  0.48645602    -0.14900
C2574       C  0.66793012  0.17488143  0.47854204    -0.08300
C2575       C  0.65724998  0.12259011  0.44405284     0.05200
C2576       C  0.65843155  0.09908179  0.44823222    -0.09400
C2577       C  0.66225244  0.08379622  0.43545256     0.00200
C2578       C  0.66436772  0.09168791  0.41785552     0.00100
C2579       C  0.66349758  0.11560559  0.41381993    -0.12900
C2580       C  0.66013347  0.13106512  0.42671443     0.00600
C2581       C  0.66395332  0.06026845  0.44100445     0.39900
C2582       C  0.65936775  0.15536426  0.42185287     0.36500
C2583       C  0.70029156  0.17541396  0.45727266     0.36200
C2584       C  0.59354449  0.12387618  0.48650358     0.37000
N2585       N  0.66546545  0.04153614  0.44554780    -0.43800
N2586       N  0.65890031  0.17492870  0.41798783    -0.44300
N2587       N  0.57154276  0.11269604  0.49195086    -0.41600
N2588       N  0.72199186  0.18571152  0.45138388    -0.43100
H2589       H  0.68439630  0.19402296  0.48340351     0.13100
H2590       H  0.61024676  0.10606806  0.46064669     0.09600
H2591       H  0.65643548  0.09270180  0.46161740     0.10700
H2592       H  0.66542425  0.12234857  0.40053224     0.16500
C2593       C  0.53693378  0.39031338  0.57300234    -0.01700
C2594       C  0.54352930  0.37730865  0.55986454     0.06900
C2595       C  0.56836670  0.37745846  0.56095295    -0.07700
C2596       C  0.58650749  0.39025266  0.57474115     0.04300
C2597       C  0.57999032  0.40346868  0.58799976    -0.14900
C2598       C  0.55494277  0.40308616  0.58681431    -0.08300
C2599       C  0.52457841  0.36327008  0.54505551     0.05200
C2600       C  0.51832670  0.37858828  0.53353988    -0.09400
C2601       C  0.00014684  0.36473907  0.51912889     0.00200
C2602       C  0.98607002  0.33584932  0.51742577     0.00100
C2603       C  0.99223330  0.32067690  0.52919631    -0.12900
C2604       C  0.01105983  0.33344846  0.54262621     0.00600
C2605       C  0.49535275  0.38339281  0.50825643     0.39900
C2606       C  0.01568226  0.31659211  0.55460299     0.36500
C2607       C  0.51143362  0.39032283  0.57276076     0.36200
C2608       C  0.61153538  0.38927686  0.57477865     0.37000
N2609       N  0.49209395  0.39744632  0.49885350    -0.43800
N2610       N  0.01940566  0.30310415  0.56421831    -0.44300
N2611       N  0.63158013  0.38847827  0.57474707    -0.41600
N2612       N  0.99180360  0.39066057  0.57156909    -0.43100
H2613       H  0.54932902  0.41297123  0.59667974     0.13100
H2614       H  0.57366296  0.36756283  0.55090202     0.09600
H2615       H  0.52817184  0.40059160  0.53515640     0.10700
H2616       H  0.98191679  0.29857620  0.52813045     0.16500
C2617       C  0.54742001  0.41519056  0.44190706    -0.01700
C2618       C  0.54914483  0.41619883  0.42376668     0.06900
C2619       C  0.52882730  0.39512525  0.41402511    -0.07700
C2620       C  0.50665872  0.37307801  0.42201984     0.04300
C2621       C  0.50454960  0.37188624  0.44032663    -0.14900
C2622       C  0.52508886  0.39321549  0.45005811    -0.08300
C2623       C  0.57190227  0.43905476  0.41448590     0.05200
C2624       C  0.59165114  0.43466905  0.40658744    -0.09400
C2625       C  0.61325405  0.45560455  0.39734571     0.00200
C2626       C  0.61498776  0.48139683  0.39570970     0.00100
C2627       C  0.59465009  0.48537419  0.40329706    -0.12900
C2628       C  0.57328944  0.46451097  0.41268943     0.00600
C2629       C  0.62177843  0.94685129  0.38587508     0.39900
C2630       C  0.55298568  0.46961798  0.42033908     0.36500
C2631       C  0.56870779  0.43611652  0.45232824     0.36200
C2632       C  0.48631890  0.35242455  0.41089924     0.37000
N2633       N  0.63402460  0.94119370  0.37643022    -0.43800
N2634       N  0.53673432  0.47371354  0.42649469    -0.44300
N2635       N  0.47013248  0.33585319  0.40197587    -0.41600
N2636       N  0.58591702  0.45288606  0.46060935    -0.43100
H2637       H  0.52396688  0.39251904  0.46402993     0.13100
H2638       H  0.53025890  0.39604522  0.40005312     0.09600
H2639       H  0.59023850  0.41486142  0.40776582     0.10700
H2640       H  0.59583269  0.50510103  0.40234607     0.16500
C2641       C  0.80772174  0.15165742  0.40071841    -0.01700
C2642       C  0.81091527  0.14838095  0.41848791     0.06900
C2643       C  0.79419804  0.12309630  0.42637005    -0.07700
C2644       C  0.77379674  0.10141076  0.41703804     0.04300
C2645       C  0.76932891  0.10507881  0.39952087    -0.14900
C2646       C  0.78688633  0.13004506  0.39138660    -0.08300
C2647       C  0.83243712  0.17040400  0.42905856     0.05200
C2648       C  0.82519225  0.18321733  0.44187135    -0.09400
C2649       C  0.84514641  0.20364202  0.45240709     0.00200
C2650       C  0.87285437  0.21121121  0.45024244     0.00100
C2651       C  0.87968111  0.19752551  0.43773846    -0.12900
C2652       C  0.85986263  0.17742200  0.42720949     0.00600
C2653       C  0.83671122  0.21719191  0.46467762     0.39900
C2654       C  0.86810166  0.16410145  0.41462963     0.36500
C2655       C  0.82514982  0.17709728  0.39190068     0.36200
C2656       C  0.75806305  0.07539658  0.42568100     0.37000
N2657       N  0.82979731  0.22797767  0.47447041    -0.43800
N2658       N  0.87457022  0.15339265  0.40449660    -0.44300
N2659       N  0.74561793  0.05452178  0.43258231    -0.41600
N2660       N  0.83916614  0.19734789  0.38469923    -0.43100
H2661       H  0.78360529  0.13306422  0.37797507     0.13100
H2662       H  0.79727995  0.12025623  0.43985997     0.09600
H2663       H  0.80396633  0.17750443  0.44345155     0.10700
H2664       H  0.90076957  0.20288126  0.43592008     0.16500
C2665       C  0.53718411  0.27160364  0.47948891    -0.01700
C2666       C  0.52818396  0.24386620  0.48316904     0.06900
C2667       C  0.50113294  0.22404645  0.47972006    -0.07700
C2668       C  0.98378977  0.23132584  0.47225510     0.04300
C2669       C  0.99142886  0.25925109  0.47132704    -0.14900
C2670       C  0.01765946  0.27912319  0.47659837    -0.08300
C2671       C  0.54592948  0.23491761  0.49153231     0.05200
C2672       C  0.53931590  0.22387980  0.50825094    -0.09400
C2673       C  0.55472434  0.21402774  0.51647794     0.00200
C2674       C  0.57744403  0.21538704  0.50791384     0.00100
C2675       C  0.58386314  0.22639822  0.49111519    -0.12900
C2676       C  0.56818795  0.23581541  0.48284979     0.00600
C2677       C  0.54696995  0.20315236  0.53373943     0.39900
C2678       C  0.57463919  0.24523584  0.46522743     0.36500
C2679       C  0.56480017  0.29277749  0.48306800     0.36200
C2680       C  0.95740703  0.21009197  0.46639157     0.37000
N2681       N  0.54068447  0.19433530  0.54754289    -0.43800
N2682       N  0.57974792  0.25263637  0.45107434    -0.44300
N2683       N  0.93631859  0.19303418  0.46167032    -0.41600
N2684       N  0.58693094  0.30979553  0.48591268    -0.43100
H2685       H  0.02343834  0.30055788  0.47624082     0.13100
H2686       H  0.49431337  0.20267587  0.48227138     0.09600
H2687       H  0.52196246  0.22292801  0.51487375     0.10700
H2688       H  0.60096837  0.22726227  0.48423657     0.16500
C2689       C  0.75840235  0.23665256  0.51023321    -0.01700
C2690       C  0.78012590  0.24596456  0.52207329     0.06900
C2691       C  0.77444617  0.24424143  0.53985819    -0.07700
C2692       C  0.74772810  0.23462861  0.54584146     0.04300
C2693       C  0.72644276  0.22720025  0.53388958    -0.14900
C2694       C  0.73198850  0.22780601  0.51619197    -0.08300
C2695       C  0.80885294  0.25859191  0.51598351     0.05200
C2696       C  0.81933592  0.28169223  0.50519747    -0.09400
C2697       C  0.84565256  0.29325515  0.49819173     0.00200
C2698       C  0.86228790  0.28183732  0.50218527     0.00100
C2699       C  0.85198098  0.25932736  0.51357321    -0.12900
C2700       C  0.82557085  0.24761297  0.52033710     0.00600
C2701       C  0.85471539  0.31659345  0.48690211     0.39900
C2702       C  0.81565375  0.22350330  0.53101197     0.36500
C2703       C  0.76269252  0.23592599  0.49190573     0.36200
C2704       C  0.74298211  0.23413676  0.56415662     0.37000
N2705       N  0.86187119  0.33526417  0.47783656    -0.43800
N2706       N  0.80772579  0.20417063  0.53955396    -0.44300
N2707       N  0.73924390  0.23370848  0.57886098    -0.41600
N2708       N  0.76616781  0.23528167  0.47724024    -0.43100
H2709       H  0.71564206  0.22180712  0.50695405     0.13100
H2710       H  0.79101163  0.25120431  0.54903897     0.09600
H2711       H  0.80665514  0.29046634  0.50201283     0.10700
H2712       H  0.86420249  0.25005535  0.51677976     0.16500
C2713       C  0.51755033  0.14427288  0.63892074    -0.01700
C2714       C  0.51531956  0.15795231  0.62436720     0.06900
C2715       C  0.99652388  0.16499185  0.62452356    -0.07700
C2716       C  0.97795310  0.15849268  0.63828872     0.04300
C2717       C  0.98027319  0.14537240  0.65333013    -0.14900
C2718       C  0.49913309  0.13729488  0.65264833    -0.08300
C2719       C  0.53435412  0.16462004  0.60945663     0.05200
C2720       C  0.53189956  0.14319408  0.59911238    -0.09400
C2721       C  0.55125525  0.14762924  0.58634278     0.00200
C2722       C  0.57368076  0.17431957  0.58340885     0.00100
C2723       C  0.57583614  0.19585084  0.59369379    -0.12900
C2724       C  0.55652016  0.19119019  0.60663991     0.00600
C2725       C  0.54829386  0.12394965  0.57728704     0.39900
C2726       C  0.56044521  0.21368468  0.61740447     0.36500
C2727       C  0.53916623  0.13780797  0.64020334     0.36200
C2728       C  0.95710480  0.16594047  0.63658603     0.37000
N2729       N  0.54597057  0.10491800  0.57014231    -0.43800
N2730       N  0.56360581  0.23165202  0.62611876    -0.44300
N2731       N  0.94051906  0.17209929  0.63521830    -0.41600
N2732       N  0.55663050  0.13282893  0.64113556    -0.43100
H2733       H  0.50153832  0.12685696  0.66369572     0.13100
H2734       H  0.99431799  0.17458598  0.61296985     0.09600
H2735       H  0.51520120  0.12260547  0.60148472     0.10700
H2736       H  0.59287393  0.21646588  0.59173715     0.16500
C2737       C  0.56521416  0.33175018  0.68735660    -0.01700
C2738       C  0.53986620  0.31363258  0.67995624     0.06900
C2739       C  0.53039926  0.32231241  0.66594582    -0.07700
C2740       C  0.54625673  0.34857119  0.65891479     0.04300
C2741       C  0.57236394  0.36654015  0.66589790    -0.14900
C2742       C  0.58112801  0.35783909  0.68036304    -0.08300
C2743       C  0.52387426  0.28498273  0.68598691     0.05200
C2744       C  0.51111641  0.27922563  0.70221533    -0.09400
C2745       C  0.49567458  0.25219407  0.70816018     0.00200
C2746       C  0.99278662  0.23077586  0.69857969     0.00100
C2747       C  0.00787888  0.23690192  0.68316139    -0.12900
C2748       C  0.52203629  0.26348094  0.67586783     0.00600
C2749       C  0.48213638  0.24736119  0.72464390     0.39900
C2750       C  0.03796126  0.26864841  0.66116750     0.36500
C2751       C  0.57585354  0.32354607  0.70166207     0.36200
C2752       C  0.53525705  0.35610307  0.64447207     0.37000
N2753       N  0.47137711  0.24359085  0.73789250    -0.43800
N2754       N  0.04971845  0.27247864  0.64829779    -0.44300
N2755       N  0.52630408  0.36209134  0.63294985    -0.41600
N2756       N  0.58431048  0.31689259  0.71312136    -0.43100
H2757       H  0.60091565  0.37119851  0.68607893     0.13100
H2758       H  0.01093462  0.30715660  0.66032617     0.09600
H2759       H  0.51292281  0.29588756  0.71011608     0.10700
H2760       H  0.00710834  0.22053124  0.67541652     0.16500
C2761       C  0.76730118  0.04035515  0.64140568    -0.01700
C2762       C  0.78432130  0.03038453  0.64743912     0.06900
C2763       C  0.77438498  0.00214215  0.64729312    -0.07700
C2764       C  0.74776038  0.98385649  0.64203157     0.04300
C2765       C  0.73025286  0.49504387  0.64015804    -0.14900
C2766       C  0.74101212  0.52344793  0.63911096    -0.08300
C2767       C  0.81122796  0.04849381  0.65570873     0.05200
C2768       C  0.81205599  0.06431585  0.66984475    -0.09400
C2769       C  0.83624241  0.08038075  0.67888831     0.00200
C2770       C  0.86051806  0.08068023  0.67398892     0.00100
C2771       C  0.85962628  0.06441474  0.66001954    -0.12900
C2772       C  0.83532694  0.04849478  0.65084634     0.00600
C2773       C  0.83511044  0.09561523  0.69350148     0.39900
C2774       C  0.83576005  0.03275350  0.63631288     0.36500
C2775       C  0.77666730  0.06926846  0.64070257     0.36200
C2776       C  0.73914714  0.95506024  0.64187159     0.37000
N2777       N  0.83398367  0.10771177  0.70519885    -0.43800
N2778       N  0.83540415  0.52396808  0.62587258    -0.44300
N2779       N  0.73228442  0.93201384  0.64170922    -0.41600
N2780       N  0.78403115  0.09241582  0.64018349    -0.43100
H2781       H  0.72821069  0.53145917  0.63467233     0.13100
H2782       H  0.78714768  0.99420491  0.65194456     0.09600
H2783       H  0.79347727  0.06371089  0.67407937     0.10700
H2784       H  0.87809078  0.06463741  0.65597652     0.16500
C2785       C  0.64276284  0.03914866  0.74076553    -0.01700
C2786       C  0.66263986  0.04304806  0.72832641     0.06900
C2787       C  0.68902100  0.06575492  0.73010300    -0.07700
C2788       C  0.69576056  0.08426691  0.74388616     0.04300
C2789       C  0.67580531  0.08028855  0.75646047    -0.14900
C2790       C  0.64944842  0.05745005  0.75458529    -0.08300
C2791       C  0.65634002  0.02372041  0.71345192     0.05200
C2792       C  0.62954205  0.50709104  0.70921652    -0.09400
C2793       C  0.62280022  0.48969167  0.69479992     0.00200
C2794       C  0.64255932  0.48434157  0.68733751     0.00100
C2795       C  0.66473665  0.99211748  0.69658372    -0.12900
C2796       C  0.67087339  0.00972781  0.71075118     0.00600
C2797       C  0.59539201  0.47759698  0.68815035     0.39900
C2798       C  0.69163858  0.01236976  0.72267394     0.36500
C2799       C  0.62382941  0.50456656  0.74955786     0.36200
C2800       C  0.72335169  0.10699745  0.74464691     0.37000
N2801       N  0.57334273  0.46784480  0.68292487    -0.43800
N2802       N  0.70823338  0.01442578  0.73224887    -0.44300
N2803       N  0.74547943  0.12519399  0.74515347    -0.41600
N2804       N  0.60514509  0.48299401  0.75161836    -0.43100
H2805       H  0.63368190  0.05389978  0.76386664     0.13100
H2806       H  0.70442857  0.06915633  0.72056848     0.09600
H2807       H  0.61443590  0.51154838  0.71445753     0.10700
H2808       H  0.67621459  0.98163752  0.69485617     0.16500
C2809       C  0.53037235  0.11145838  0.74569581    -0.01700
C2810       C  0.55519241  0.13590387  0.74832170     0.06900
C2811       C  0.55896444  0.16023262  0.74094301    -0.07700
C2812       C  0.53813760  0.16068918  0.73144162     0.04300
C2813       C  0.51300675  0.13619797  0.72890713    -0.14900
C2814       C  0.50964593  0.11174510  0.73600516    -0.08300
C2815       C  0.57811137  0.13628488  0.75784015     0.05200
C2816       C  0.60061239  0.13967681  0.74838984    -0.09400
C2817       C  0.62265400  0.13973832  0.75653234     0.00200
C2818       C  0.62247268  0.13627997  0.77475605     0.00100
C2819       C  0.59984523  0.13313898  0.78420814    -0.12900
C2820       C  0.57787932  0.13332887  0.77591609     0.00600
C2821       C  0.64470373  0.14282141  0.74555609     0.39900
C2822       C  0.55561221  0.13114159  0.78620179     0.36500
C2823       C  0.52578631  0.08581133  0.75273654     0.36200
C2824       C  0.04247873  0.18682490  0.72510615     0.37000
N2825       N  0.66232157  0.14538921  0.73670066    -0.43800
N2826       N  0.53779134  0.12953758  0.79442384    -0.44300
N2827       N  0.04674673  0.20740251  0.71914188    -0.41600
N2828       N  0.52206649  0.06525204  0.75840340    -0.43100
H2829       H  0.49046491  0.09284003  0.73440719     0.13100
H2830       H  0.57823230  0.17898565  0.74273806     0.09600
H2831       H  0.60079530  0.14202135  0.73448236     0.10700
H2832       H  0.59938141  0.13077569  0.79810637     0.16500
C2833       C  0.84336359  0.16727310  0.73545138    -0.01700
C2834       C  0.84646690  0.16938840  0.75355452     0.06900
C2835       C  0.87063491  0.17341294  0.76096241    -0.07700
C2836       C  0.89105058  0.17367495  0.75076019     0.04300
C2837       C  0.88703671  0.16889328  0.73275297    -0.14900
C2838       C  0.86367050  0.16700779  0.72514194    -0.08300
C2839       C  0.82480641  0.16744244  0.76512887     0.05200
C2840       C  0.80821102  0.14285983  0.77398202    -0.09400
C2841       C  0.78677328  0.13996371  0.78453079     0.00200
C2842       C  0.78176812  0.16195259  0.78616348     0.00100
C2843       C  0.79939435  0.18696035  0.77798149    -0.12900
C2844       C  0.82092350  0.18989231  0.76764401     0.00600
C2845       C  0.76922929  0.11382683  0.79259385     0.39900
C2846       C  0.83872979  0.21599776  0.75963487     0.36500
C2847       C  0.81918984  0.16455264  0.72733542     0.36200
C2848       C  0.91599720  0.17891975  0.75916878     0.37000
N2849       N  0.75511843  0.09293650  0.79910138    -0.43800
N2850       N  0.85318879  0.23687974  0.75323629    -0.44300
N2851       N  0.93601214  0.18316696  0.76585434    -0.41600
N2852       N  0.79985273  0.16256613  0.72088237    -0.43100
H2853       H  0.86064800  0.16398233  0.71134123     0.13100
H2854       H  0.87341656  0.17608895  0.77482051     0.09600
H2855       H  0.81160492  0.12573631  0.77228051     0.10700
H2856       H  0.79589225  0.20407836  0.77932212     0.16500
C2857       C  0.87983907  0.45661537  0.10265171    -0.01700
C2858       C  0.86120946  0.44528116  0.08887225     0.06900
C2859       C  0.84216454  0.45376168  0.08608420    -0.07700
C2860       C  0.84148708  0.47342897  0.09663745     0.04300
C2861       C  0.86016706  0.48496800  0.11051862    -0.14900
C2862       C  0.87935537  0.47648782  0.11324140    -0.08300
C2863       C  0.85965022  0.42294737  0.07804317     0.05200
C2864       C  0.83645623  0.39701997  0.07954779    -0.09400
C2865       C  0.83472542  0.37464782  0.07075911     0.00200
C2866       C  0.85675510  0.37796613  0.06037231     0.00100
C2867       C  0.87905388  0.40439671  0.05777546    -0.12900
C2868       C  0.88056704  0.42689477  0.06646837     0.00600
C2869       C  0.81001951  0.34854947  0.07262216     0.39900
C2870       C  0.90366135  0.45376161  0.06336905     0.36500
C2871       C  0.89901669  0.44754171  0.10646537     0.36200
C2872       C  0.82203215  0.98470233  0.08927603     0.37000
N2873       N  0.79012520  0.32773427  0.07410592    -0.43800
N2874       N  0.92207982  0.47533631  0.06082612    -0.44300
N2875       N  0.80731808  0.99249297  0.08547559    -0.41600
N2876       N  0.91433636  0.44019360  0.10950789    -0.43100
H2877       H  0.89386837  0.48525416  0.12372759     0.13100
H2878       H  0.82777556  0.44497306  0.07552124     0.09600
H2879       H  0.81990913  0.39414254  0.08796357     0.10700
H2880       H  0.89584994  0.40731516  0.04959601     0.16500
C2881       C  0.83446479  0.15553102  0.10743040    -0.01700
C2882       C  0.82524943  0.14974534  0.09020665     0.06900
C2883       C  0.81693804  0.12391504  0.08331943    -0.07700
C2884       C  0.81871408  0.10414590  0.09312592     0.04300
C2885       C  0.82892585  0.11022957  0.11019510    -0.14900
C2886       C  0.83595033  0.13562364  0.11737411    -0.08300
C2887       C  0.82545604  0.17091546  0.07894597     0.05200
C2888       C  0.84477157  0.18199630  0.06561952    -0.09400
C2889       C  0.84777273  0.20429812  0.05594259     0.00200
C2890       C  0.83116785  0.21581785  0.05969340     0.00100
C2891       C  0.81075925  0.20343539  0.07243186    -0.12900
C2892       C  0.80771789  0.18110498  0.08194478     0.00600
C2893       C  0.86877832  0.21546571  0.04287536     0.39900
C2894       C  0.78644355  0.16905493  0.09483146     0.36500
C2895       C  0.84412504  0.18231114  0.11473800     0.36200
C2896       C  0.81048392  0.07796172  0.08523673     0.37000
N2897       N  0.88558760  0.22419847  0.03237652    -0.43800
N2898       N  0.76942818  0.15927318  0.10516222    -0.44300
N2899       N  0.80395534  0.05699554  0.07896035    -0.41600
N2900       N  0.85189090  0.20384671  0.12048917    -0.43100
H2901       H  0.84423901  0.14051901  0.13033290     0.13100
H2902       H  0.80966848  0.11945608  0.07011193     0.09600
H2903       H  0.85818618  0.17379219  0.06320299     0.10700
H2904       H  0.79729139  0.21144648  0.07520238     0.16500
C2905       C  0.92406917  0.32410045  0.11575827    -0.01700
C2906       C  0.95195738  0.33437779  0.11218173     0.06900
C2907       C  0.96097118  0.33943044  0.09500947    -0.07700
C2908       C  0.94270939  0.33452769  0.08144159     0.04300
C2909       C  0.91470301  0.32429203  0.08496330    -0.14900
C2910       C  0.90570618  0.31899201  0.10220127    -0.08300
C2911       C  0.97215604  0.34036221  0.12617722     0.05200
C2912       C  0.97350233  0.31877244  0.13414295    -0.09400
C2913       C  0.49316625  0.32294196  0.14734610     0.00200
C2914       C  0.51003801  0.34990297  0.15367615     0.00100
C2915       C  0.00897673  0.37235390  0.14474333    -0.12900
C2916       C  0.99008839  0.36733084  0.13156542     0.00600
C2917       C  0.49433244  0.29977323  0.15422033     0.39900
C2918       C  0.98893122  0.39012695  0.12404006     0.36500
C2919       C  0.91403994  0.31940046  0.13327887     0.36200
C2920       C  0.95313933  0.33925491  0.06401021     0.37000
N2921       N  0.49529736  0.28119542  0.15968611    -0.43800
N2922       N  0.98787713  0.40835058  0.11803753    -0.44300
N2923       N  0.96152589  0.34299577  0.05004788    -0.41600
N2924       N  0.90606631  0.31575954  0.14733803    -0.43100
H2925       H  0.88435038  0.31135353  0.10512894     0.13100
H2926       H  0.98240083  0.34718750  0.09220892     0.09600
H2927       H  0.46139116  0.29735315  0.12942465     0.10700
H2928       H  0.02246486  0.39328101  0.14873605     0.16500
C2929       C  0.49963696  0.22590284  0.19003980    -0.01700
C2930       C  0.97131577  0.21564302  0.18850939     0.06900
C2931       C  0.95958399  0.23114492  0.19411204    -0.07700
C2932       C  0.97585621  0.25782763  0.20035731     0.04300
C2933       C  0.50469303  0.26870990  0.20104971    -0.14900
C2934       C  0.51598028  0.25241486  0.19628659    -0.08300
C2935       C  0.95380406  0.18855669  0.18037051     0.05200
C2936       C  0.95208065  0.16505495  0.18784869    -0.09400
C2937       C  0.93582531  0.13920439  0.18046670     0.00200
C2938       C  0.92071021  0.13661719  0.16541168     0.00100
C2939       C  0.92247502  0.16012791  0.15797880    -0.12900
C2940       C  0.93901761  0.18593715  0.16515665     0.00600
C2941       C  0.93378019  0.11562155  0.18916348     0.39900
C2942       C  0.94073966  0.20935431  0.15641442     0.36500
C2943       C  0.51265241  0.21076284  0.18451941     0.36200
C2944       C  0.96284218  0.27343922  0.20473204     0.37000
N2945       N  0.93208421  0.09674819  0.19621193    -0.43800
N2946       N  0.94183117  0.22784668  0.14921945    -0.44300
N2947       N  0.95229788  0.28587317  0.20817481    -0.41600
N2948       N  0.52312420  0.19865614  0.18013664    -0.43100
H2949       H  0.53788481  0.26075156  0.19693501     0.13100
H2950       H  0.93768829  0.22263439  0.19309400     0.09600
H2951       H  0.96319675  0.16689894  0.19961875     0.10700
H2952       H  0.91086904  0.15832276  0.14644176     0.16500
C2953       C  0.66458355  0.43621409  0.15285969    -0.01700
C2954       C  0.68259736  0.46095508  0.16113327     0.06900
C2955       C  0.67314510  0.46958986  0.17519591    -0.07700
C2956       C  0.64686376  0.45303625  0.18189526     0.04300
C2957       C  0.62923182  0.42745992  0.17414499    -0.14900
C2958       C  0.63820441  0.41997232  0.15926510    -0.08300
C2959       C  0.71183648  0.47691339  0.15614798     0.05200
C2960       C  0.71973270  0.99303811  0.13983848    -0.09400
C2961       C  0.74686120  0.00814593  0.13418655     0.00200
C2962       C  0.76757672  0.00653631  0.14337753     0.00100
C2963       C  0.75985207  0.49667319  0.16302271    -0.12900
C2964       C  0.73257486  0.48198391  0.16811416     0.00600
C2965       C  0.75284635  0.02615772  0.11958912     0.39900
C2966       C  0.72647602  0.47177464  0.18561438     0.36500
C2967       C  0.67312351  0.42608697  0.13844512     0.36200
C2968       C  0.63939430  0.46232343  0.19720945     0.37000
N2969       N  0.75722081  0.04048611  0.10787052    -0.43800
N2970       N  0.72165958  0.46364948  0.19963831    -0.44300
N2971       N  0.63363023  0.46988577  0.20952047    -0.41600
N2972       N  0.67994689  0.41799505  0.12687671    -0.43100
H2973       H  0.62494668  0.40068405  0.15292277     0.13100
H2974       H  0.68681917  0.48887591  0.18141926     0.09600
H2975       H  0.70393599  0.99482991  0.13306575     0.10700
H2976       H  0.77545090  0.50064050  0.17253752     0.16500
C2977       C  0.61544287  0.43519269  0.27670471    -0.01700
C2978       C  0.61678893  0.46083483  0.27683084     0.06900
C2979       C  0.60548945  0.46775714  0.26295812    -0.07700
C2980       C  0.59247295  0.44950621  0.24930331     0.04300
C2981       C  0.59069156  0.42349463  0.24923986    -0.14900
C2982       C  0.60260654  0.41695989  0.26304799    -0.08300
C2983       C  0.62976984  0.48058968  0.29133331     0.05200
C2984       C  0.65749973  0.49081921  0.29495228    -0.09400
C2985       C  0.66469646  0.02248503  0.30519968     0.00200
C2986       C  0.65018190  0.01650524  0.32105597     0.00100
C2987       C  0.62408848  0.99300124  0.32194532    -0.12900
C2988       C  0.61486671  0.48918324  0.30164819     0.00600
C2989       C  0.69144883  0.04614368  0.30297859     0.39900
C2990       C  0.58653883  0.48013933  0.29819664     0.36500
C2991       C  0.62635875  0.42668208  0.29069738     0.36200
C2992       C  0.58125529  0.45834189  0.23566987     0.37000
N2993       N  0.71295033  0.06501954  0.30116994    -0.43800
N2994       N  0.56392755  0.47313045  0.29529743    -0.44300
N2995       N  0.57234879  0.46560769  0.22479389    -0.41600
N2996       N  0.63510414  0.41975312  0.30185311    -0.43100
H2997       H  0.60160543  0.39728361  0.26338592     0.13100
H2998       H  0.60678786  0.48758037  0.26283265     0.09600
H2999       H  0.66921642  0.48466377  0.28693224     0.10700
H3000       H  0.61249270  0.98790090  0.33386076     0.16500
C3001       C  0.82484870  0.32750983  0.38285404    -0.01700
C3002       C  0.85210063  0.33355133  0.38437291     0.06900
C3003       C  0.87082303  0.34917084  0.37147987    -0.07700
C3004       C  0.86293366  0.35875670  0.35713538     0.04300
C3005       C  0.83546065  0.35265768  0.35537456    -0.14900
C3006       C  0.81677380  0.33700747  0.36849657    -0.08300
C3007       C  0.86217039  0.32482207  0.39949892     0.05200
C3008       C  0.86425338  0.30114340  0.39839042    -0.09400
C3009       C  0.87756381  0.29459950  0.41127627     0.00200
C3010       C  0.88963721  0.31233423  0.42558495     0.00100
C3011       C  0.88595468  0.33518541  0.42702523    -0.12900
C3012       C  0.87246133  0.34147165  0.41420637     0.00600
C3013       C  0.87901970  0.26996555  0.40910061     0.39900
C3014       C  0.87034891  0.36578146  0.41604896     0.36500
C3015       C  0.80481972  0.31149229  0.39581746     0.36200
C3016       C  0.88378952  0.37495560  0.34463772     0.37000
N3017       N  0.88014128  0.25019332  0.40738046    -0.43800
N3018       N  0.86861870  0.38525401  0.41747917    -0.44300
N3019       N  0.90067898  0.38792770  0.33470872    -0.41600
N3020       N  0.78869233  0.29863840  0.40617696    -0.43100
H3021       H  0.79562324  0.33185472  0.36750530     0.13100
H3022       H  0.89189117  0.35405869  0.37271057     0.09600
H3023       H  0.85614553  0.28814064  0.38712696     0.10700
H3024       H  0.89436050  0.34881032  0.43798019     0.16500
C3025       C  0.84626717  0.47356798  0.25195237    -0.01700
C3026       C  0.84324911  0.46663515  0.23429973     0.06900
C3027       C  0.83511057  0.43960764  0.22973683    -0.07700
C3028       C  0.82965490  0.41951826  0.24227882     0.04300
C3029       C  0.83144769  0.42598590  0.26012703    -0.14900
C3030       C  0.83993583  0.45331908  0.26461672    -0.08300
C3031       C  0.85011528  0.48727097  0.22019392     0.05200
C3032       C  0.87206741  0.49304194  0.20921501    -0.09400
C3033       C  0.87368897  0.00440207  0.19064281     0.00200
C3034       C  0.85959904  0.01890668  0.18761305     0.00100
C3035       C  0.83932108  0.01568261  0.19948301    -0.12900
C3036       C  0.83425219  0.49969445  0.21673654     0.00600
C3037       C  0.89573939  0.00757655  0.17967792     0.39900
C3038       C  0.81102157  0.49401762  0.22735149     0.36500
C3039       C  0.85738869  0.50159904  0.25733557     0.36200
C3040       C  0.82318904  0.39279847  0.23618046     0.37000
N3041       N  0.91346823  0.01011830  0.17094920    -0.43800
N3042       N  0.79237468  0.48948815  0.23583199    -0.44300
N3043       N  0.81837015  0.37156089  0.23114884    -0.41600
N3044       N  0.87844022  0.02516176  0.25462891    -0.43100
H3045       H  0.84227427  0.45915322  0.27809179     0.13100
H3046       H  0.83345037  0.43426041  0.21618101     0.09600
H3047       H  0.88451158  0.48380352  0.21184393     0.10700
H3048       H  0.82816993  0.02642668  0.19739919     0.16500
C3049       C  0.92083623  0.38417981  0.26566292    -0.01700
C3050       C  0.91582395  0.36059611  0.25647996     0.06900
C3051       C  0.89102338  0.33631371  0.25882054    -0.07700
C3052       C  0.87078440  0.33535646  0.26957266     0.04300
C3053       C  0.87493531  0.35948039  0.27794110    -0.14900
C3054       C  0.90035703  0.38354001  0.27610778    -0.08300
C3055       C  0.93689918  0.35983039  0.24558632     0.05200
C3056       C  0.94548802  0.34136000  0.25014011    -0.09400
C3057       C  0.96617027  0.34044322  0.24099662     0.00200
C3058       C  0.97929522  0.35889989  0.22717796     0.00100
C3059       C  0.96944326  0.37614149  0.22184615    -0.12900
C3060       C  0.94816589  0.37654724  0.23086101     0.00600
C3061       C  0.97349487  0.32035250  0.24621541     0.39900
C3062       C  0.93818399  0.39410441  0.22476831     0.36500
C3063       C  0.94698405  0.40902894  0.26493034     0.36200
C3064       C  0.84616747  0.30920904  0.27160407     0.37000
N3065       N  0.97931235  0.30424257  0.25039532    -0.43800
N3066       N  0.93014927  0.40814755  0.21987564    -0.44300
N3067       N  0.82657354  0.28816450  0.27322109    -0.41600
N3068       N  0.96793081  0.42894413  0.26435909    -0.43100
H3069       H  0.90421023  0.40208968  0.28264711     0.13100
H3070       H  0.88750461  0.31791992  0.25219936     0.09600
H3071       H  0.93627782  0.32788343  0.26113539     0.10700
H3072       H  0.97903128  0.39004672  0.21109731     0.16500
C3073       C  0.62848036  0.31637003  0.24888715    -0.01700
C3074       C  0.65650604  0.33482048  0.24689834     0.06900
C3075       C  0.66532135  0.35517676  0.23410361    -0.07700
C3076       C  0.64647655  0.35800706  0.22375840     0.04300
C3077       C  0.61822365  0.33984433  0.22601644    -0.14900
C3078       C  0.60974943  0.31884406  0.23843866    -0.08300
C3079       C  0.67693397  0.33314420  0.25801994     0.05200
C3080       C  0.69224873  0.32222701  0.25107770    -0.09400
C3081       C  0.71296263  0.32185884  0.26067625     0.00200
C3082       C  0.71880222  0.33278434  0.27756436     0.00100
C3083       C  0.70238294  0.34226038  0.28489519    -0.12900
C3084       C  0.68154665  0.34255341  0.27523076     0.00600
C3085       C  0.72808254  0.31031421  0.25281245     0.39900
C3086       C  0.66588464  0.35360527  0.28292309     0.36500
C3087       C  0.61840885  0.29496934  0.26175140     0.36200
C3088       C  0.65665977  0.38051711  0.21170422     0.37000
N3089       N  0.74013366  0.30106627  0.24642614    -0.43800
N3090       N  0.65323745  0.36240012  0.28904151    -0.44300
N3091       N  0.66490166  0.39865989  0.20210829    -0.41600
N3092       N  0.61023576  0.27789066  0.27210533    -0.43100
H3093       H  0.58820129  0.30448641  0.24032146     0.13100
H3094       H  0.68699025  0.36936407  0.23253544     0.09600
H3095       H  0.68827326  0.31437419  0.23800008     0.10700
H3096       H  0.70675445  0.35075854  0.29780629     0.16500
C3097       C  0.76154654  0.23437792  0.33150244    -0.01700
C3098       C  0.74248194  0.21278703  0.32120495     0.06900
C3099       C  0.73477437  0.21859440  0.30528594    -0.07700
C3100       C  0.74502623  0.24572911  0.29981571     0.04300
C3101       C  0.76316800  0.26755784  0.31051771    -0.14900
C3102       C  0.77163813  0.26139414  0.32614869    -0.08300
C3103       C  0.72998143  0.18413134  0.32723847     0.05200
C3104       C  0.70581373  0.17293017  0.33696996    -0.09400
C3105       C  0.69504955  0.14700210  0.34459278     0.00200
C3106       C  0.70888274  0.13217391  0.34266292     0.00100
C3107       C  0.73258390  0.14315454  0.33243351    -0.12900
C3108       C  0.74307317  0.16881930  0.32466503     0.00600
C3109       C  0.67077231  0.13682367  0.35506771     0.39900
C3110       C  0.76754894  0.17925984  0.31436324     0.36500
C3111       C  0.77054571  0.22925554  0.34781139     0.36200
C3112       C  0.73534542  0.25032676  0.28367385     0.37000
N3113       N  0.65130471  0.12866360  0.36345821    -0.43800
N3114       N  0.78710982  0.18752618  0.30605814    -0.44300
N3115       N  0.72729610  0.25353738  0.27068231    -0.41600
N3116       N  0.77775771  0.22510530  0.36085453    -0.43100
H3117       H  0.78584214  0.27780619  0.33444558     0.13100
H3118       H  0.72025918  0.20188355  0.29730549     0.09600
H3119       H  0.69582060  0.18481333  0.33900849     0.10700
H3120       H  0.74310206  0.13172133  0.33061757     0.16500
C3121       C  0.79328074  0.46462050  0.34409981    -0.01700
C3122       C  0.76816212  0.45315869  0.35307945     0.06900
C3123       C  0.75263555  0.42471506  0.35495896    -0.07700
C3124       C  0.76071433  0.40759267  0.34721257     0.04300
C3125       C  0.78475668  0.41885821  0.33710184    -0.14900
C3126       C  0.80141993  0.44740697  0.33624481    -0.08300
C3127       C  0.75556465  0.46959334  0.35858652     0.05200
C3128       C  0.73080122  0.46374056  0.35085864    -0.09400
C3129       C  0.71786935  0.47850435  0.35513019     0.00200
C3130       C  0.72335350  0.99685987  0.36501065     0.00100
C3131       C  0.74025520  0.99350676  0.37687846    -0.12900
C3132       C  0.75354493  0.97903731  0.37232662     0.00600
C3133       C  0.69197585  0.47091944  0.34716131     0.39900
C3134       C  0.77115911  0.97652090  0.38473265     0.36500
C3135       C  0.81039370  0.49380765  0.34206608     0.36200
C3136       C  0.74398593  0.37848282  0.35001574     0.37000
N3137       N  0.67110649  0.46463867  0.34090098    -0.43800
N3138       N  0.78519942  0.97433966  0.39467176    -0.44300
N3139       N  0.73068060  0.35517050  0.35228849    -0.41600
N3140       N  0.82431190  0.51721304  0.34058282    -0.43100
H3141       H  0.82016897  0.45626205  0.32880089     0.13100
H3142       H  0.73359973  0.41580645  0.36210649     0.09600
H3143       H  0.72163654  0.44765617  0.34128784     0.10700
H3144       H  0.74402933  0.00314162  0.38943093     0.16500
C3145       C  0.88241506  0.01750498  0.80484094    -0.01700
C3146       C  0.86626972  0.01615491  0.79059610     0.06900
C3147       C  0.83887070  0.99525475  0.79016565    -0.07700
C3148       C  0.82638319  0.48327598  0.80663457     0.04300
C3149       C  0.84209156  0.48117302  0.82017797    -0.14900
C3150       C  0.87069604  0.49766527  0.81930886    -0.08300
C3151       C  0.87765169  0.03601947  0.77593221     0.05200
C3152       C  0.87681545  0.02625135  0.75916435    -0.09400
C3153       C  0.88833581  0.04427159  0.74513980     0.00200
C3154       C  0.90152547  0.07290227  0.74780662     0.00100
C3155       C  0.90131061  0.08251460  0.76451040    -0.12900
C3156       C  0.88921204  0.06446489  0.77840244     0.00600
C3157       C  0.88687737  0.03267481  0.72832289     0.39900
C3158       C  0.88837029  0.07565551  0.79498283     0.36500
C3159       C  0.91132641  0.03690786  0.80533020     0.36200
C3160       C  0.79695698  0.46753915  0.80655508     0.37000
N3161       N  0.88554039  0.02332147  0.71483754    -0.43800
N3162       N  0.88773230  0.08468665  0.80825111    -0.44300
N3163       N  0.77336107  0.45504596  0.80646500    -0.41600
N3164       N  0.93447913  0.05247569  0.80570660    -0.43100
H3165       H  0.88328035  0.49627402  0.82935962     0.13100
H3166       H  0.82646855  0.99362871  0.77907352     0.09600
H3167       H  0.86750660  0.00440512  0.75706878     0.10700
H3168       H  0.91052235  0.10431860  0.76675256     0.16500
C3169       C  0.72809794  0.00505917  0.86761423    -0.01700
C3170       C  0.73544071  0.02127432  0.85253459     0.06900
C3171       C  0.76406665  0.53146967  0.84663721    -0.07700
C3172       C  0.77686068  0.51655632  0.85086574     0.04300
C3173       C  0.76727895  0.49822166  0.86499344    -0.14900
C3174       C  0.74257312  0.99186141  0.87234638    -0.08300
C3175       C  0.72122073  0.03619439  0.84703291     0.05200
C3176       C  0.72320875  0.05737199  0.85741286    -0.09400
C3177       C  0.71363895  0.07456950  0.85163668     0.00200
C3178       C  0.70205278  0.07097566  0.83492905     0.00100
C3179       C  0.69844301  0.04854203  0.82504887    -0.12900
C3180       C  0.70786880  0.03122778  0.83096290     0.00600
C3181       C  0.71619527  0.09576294  0.86320028     0.39900
C3182       C  0.69274653  0.50565283  0.83455964     0.36500
C3183       C  0.70506013  0.00067039  0.87798925     0.36200
C3184       C  0.80009526  0.52089696  0.84068549     0.37000
N3185       N  0.71824575  0.11269099  0.87251051    -0.43800
N3186       N  0.68188144  0.48295954  0.83038991    -0.44300
N3187       N  0.81879719  0.52461004  0.83254546    -0.41600
N3188       N  0.68654595  0.99702198  0.88631273    -0.43100
H3189       H  0.73617056  0.97868213  0.88361536     0.13100
H3190       H  0.77138327  0.54543343  0.83574564     0.09600
H3191       H  0.73313933  0.06106298  0.86988375     0.10700
H3192       H  0.68925434  0.04513143  0.81235660     0.16500
C3193       C  0.74874447  0.31475180  0.84253998    -0.01700
C3194       C  0.76232872  0.31124279  0.82838214     0.06900
C3195       C  0.78574010  0.33391878  0.82162710    -0.07700
C3196       C  0.79597233  0.35985131  0.82891969     0.04300
C3197       C  0.78239609  0.36334822  0.84313138    -0.14900
C3198       C  0.75876926  0.34067056  0.84971025    -0.08300
C3199       C  0.75343226  0.28382776  0.82114453     0.05200
C3200       C  0.72726253  0.26854749  0.81396589    -0.09400
C3201       C  0.71761857  0.24171689  0.80824896     0.00200
C3202       C  0.73462193  0.23009214  0.80942766     0.00100
C3203       C  0.76111837  0.24590354  0.81609331    -0.12900
C3204       C  0.77049163  0.27236658  0.82206438     0.00600
C3205       C  0.68976196  0.22615738  0.80235323     0.39900
C3206       C  0.79715275  0.28677019  0.82995244     0.36500
C3207       C  0.72498117  0.29200911  0.85027056     0.36200
C3208       C  0.81974591  0.38253834  0.82116644     0.37000
N3209       N  0.66737271  0.21369297  0.79773406    -0.43800
N3210       N  0.81846713  0.29832284  0.83630866    -0.44300
N3211       N  0.83878341  0.40071718  0.81494049    -0.41600
N3212       N  0.70591304  0.27385005  0.85648245    -0.43100
H3213       H  0.74821688  0.34315223  0.86064449     0.13100
H3214       H  0.79611562  0.33125615  0.81066802     0.09600
H3215       H  0.71409638  0.27735613  0.81329946     0.10700
H3216       H  0.77442972  0.23728586  0.81710847     0.16500
C3217       C  0.83697055  0.40271132  0.94741186    -0.01700
C3218       C  0.83467010  0.37692186  0.94516867     0.06900
C3219       C  0.82836360  0.36476800  0.92882172    -0.07700
C3220       C  0.82464972  0.37808438  0.91465611     0.04300
C3221       C  0.82769964  0.40443769  0.91671028    -0.14900
C3222       C  0.83361763  0.41623432  0.93328353    -0.08300
C3223       C  0.83916736  0.36251669  0.95971980     0.05200
C3224       C  0.81787074  0.34747265  0.97136431    -0.09400
C3225       C  0.82162237  0.33423362  0.98553049     0.00200
C3226       C  0.84708104  0.33566321  0.98810202     0.00100
C3227       C  0.86843992  0.35100278  0.97644000    -0.12900
C3228       C  0.86466875  0.36439787  0.96237051     0.00600
C3229       C  0.79957547  0.32104326  0.99779407     0.39900
C3230       C  0.88738489  0.38051272  0.95100404     0.36500
C3231       C  0.84301469  0.41577916  0.96409255     0.36200
C3232       C  0.81697593  0.36375112  0.89839674     0.37000
N3233       N  0.78183898  0.31096411  0.00762123    -0.43800
N3234       N  0.90555852  0.39357273  0.94189678    -0.44300
N3235       N  0.81070289  0.35212261  0.88541529    -0.41600
N3236       N  0.84779213  0.42621352  0.97747114    -0.43100
H3237       H  0.83587086  0.43627243  0.93526630     0.13100
H3238       H  0.82623928  0.34471390  0.92715744     0.09600
H3239       H  0.79841511  0.34651252  0.96953632     0.10700
H3240       H  0.88813119  0.35252935  0.97830204     0.16500
C3241       C  0.49398217  0.13167027  0.04315907    -0.01700
C3242       C  0.97643864  0.13890521  0.04901511     0.06900
C3243       C  0.97631517  0.16127351  0.04122669    -0.07700
C3244       C  0.99332530  0.17491212  0.02711075     0.04300
C3245       C  0.51034657  0.16682494  0.02056950    -0.14900
C3246       C  0.51083952  0.14490777  0.02893738    -0.08300
C3247       C  0.95703891  0.12412758  0.06340543     0.05200
C3248       C  0.95847823  0.13819177  0.07865004    -0.09400
C3249       C  0.94085668  0.12474093  0.09256469     0.00200
C3250       C  0.92158870  0.09649419  0.09144973     0.00100
C3251       C  0.91958769  0.08277061  0.07594509    -0.12900
C3252       C  0.93680744  0.09631945  0.06196928     0.00600
C3253       C  0.94198101  0.14076079  0.10736155     0.39900
C3254       C  0.93270848  0.08143274  0.04609016     0.36500
C3255       C  0.49649757  0.11029200  0.05171363     0.36200
C3256       C  0.99170885  0.19754135  0.01972036     0.37000
N3257       N  0.94278913  0.15380258  0.11908396    -0.43800
N3258       N  0.92935687  0.06948385  0.03336497    -0.44300
N3259       N  0.99050453  0.21574475  0.01382311    -0.41600
N3260       N  0.49844205  0.09317188  0.05863421    -0.43100
H3261       H  0.52468520  0.13815232  0.02448942     0.13100
H3262       H  0.96249169  0.16783649  0.04603938     0.09600
H3263       H  0.97340060  0.15979260  0.07965641     0.10700
H3264       H  0.90447362  0.06126429  0.07471040     0.16500
C3265       C  0.60874050  0.14650241  0.91257813    -0.01700
C3266       C  0.62379322  0.16513317  0.89931529     0.06900
C3267       C  0.62663645  0.19131117  0.89971439    -0.07700
C3268       C  0.61411906  0.19878873  0.91264850     0.04300
C3269       C  0.59797505  0.17972306  0.92563332    -0.14900
C3270       C  0.59606025  0.15380766  0.92546720    -0.08300
C3271       C  0.63605428  0.15752794  0.88465862     0.05200
C3272       C  0.61887093  0.13716849  0.87296212    -0.09400
C3273       C  0.62944281  0.13047598  0.85848325     0.00200
C3274       C  0.65795380  0.14438101  0.85535021     0.00100
C3275       C  0.67507372  0.16439827  0.86735342    -0.12900
C3276       C  0.66446626  0.17089317  0.88184196     0.00600
C3277       C  0.61034522  0.10995614  0.84681744     0.39900
C3278       C  0.68323449  0.19091961  0.89389187     0.36500
C3279       C  0.60643811  0.11988185  0.91340106     0.36200
C3280       C  0.61843643  0.22623989  0.91216265     0.37000
N3281       N  0.59493087  0.09349002  0.83750660    -0.43800
N3282       N  0.69830391  0.20686238  0.90359018    -0.44300
N3283       N  0.62199936  0.24828092  0.91174626    -0.41600
N3284       N  0.60472610  0.09860478  0.91409257    -0.43100
H3285       H  0.58427647  0.13888841  0.93532620     0.13100
H3286       H  0.63841594  0.20589592  0.88968750     0.09600
H3287       H  0.59700189  0.12680385  0.87498192     0.10700
H3288       H  0.69698197  0.17505856  0.86549306     0.16500
C3289       C  0.89593557  0.05999506  0.91083671    -0.01700
C3290       C  0.92139063  0.06190487  0.91346107     0.06900
C3291       C  0.92714506  0.04304225  0.90565436    -0.07700
C3292       C  0.90741778  0.02155462  0.89578611     0.04300
C3293       C  0.88106859  0.01844197  0.89399156    -0.14900
C3294       C  0.87602021  0.03836182  0.90122784    -0.08300
C3295       C  0.94291135  0.08445446  0.92349937     0.05200
C3296       C  0.94835095  0.07966502  0.94040129    -0.09400
C3297       C  0.96927594  0.10065094  0.95004761     0.00200
C3298       C  0.98522114  0.12685263  0.94256718     0.00100
C3299       C  0.97885346  0.13144291  0.92572824    -0.12900
C3300       C  0.95812770  0.11057786  0.91620558     0.00600
C3301       C  0.97394146  0.09453984  0.96737173     0.39900
C3302       C  0.95329276  0.11622871  0.89877008     0.36500
C3303       C  0.88975265  0.07982983  0.91809135     0.36200
C3304       C  0.91504557  0.00331532  0.88769932     0.37000
N3305       N  0.97759714  0.08963962  0.98128606    -0.43800
N3306       N  0.94938269  0.12067410  0.88480378    -0.44300
N3307       N  0.90814289  0.47060941  0.90038919    -0.41600
N3308       N  0.88493592  0.09585010  0.92384439    -0.43100
H3309       H  0.85618918  0.03671936  0.89982940     0.13100
H3310       H  0.94719878  0.04523587  0.90723448     0.09600
H3311       H  0.93630102  0.05943982  0.94600030     0.10700
H3312       H  0.49513642  0.14864609  0.91803467     0.16500
C3313       C  0.70014506  0.37712279  0.92693484    -0.01700
C3314       C  0.68017923  0.35239003  0.91965566     0.06900
C3315       C  0.68037695  0.34822480  0.90180745    -0.07700
C3316       C  0.70124875  0.36782958  0.89131701     0.04300
C3317       C  0.72224177  0.39193577  0.89883066    -0.14900
C3318       C  0.72092731  0.39656590  0.91654817    -0.08300
C3319       C  0.65922481  0.33050469  0.93058208     0.05200
C3320       C  0.63264229  0.32606767  0.93019090    -0.09400
C3321       C  0.61202458  0.30511306  0.93994309     0.00200
C3322       C  0.61801181  0.28819197  0.95041742     0.00100
C3323       C  0.64495112  0.29343234  0.95134719    -0.12900
C3324       C  0.66550773  0.31424798  0.94136534     0.00600
C3325       C  0.58484073  0.30128711  0.93880233     0.39900
C3326       C  0.69254185  0.31765016  0.94164315     0.36500
C3327       C  0.69986290  0.38284156  0.94506606     0.36200
C3328       C  0.70149206  0.36197104  0.87322295     0.37000
N3329       N  0.56304370  0.29812382  0.93781037    -0.43800
N3330       N  0.71417898  0.32029318  0.94176091    -0.44300
N3331       N  0.70160557  0.35723882  0.85871261    -0.41600
N3332       N  0.69960804  0.38746700  0.95958064    -0.43100
H3333       H  0.73667909  0.41522903  0.92243090     0.13100
H3334       H  0.66470414  0.32926399  0.89619467     0.09600
H3335       H  0.62794773  0.33884776  0.92205008     0.10700
H3336       H  0.64963820  0.28027268  0.95909966     0.16500
C3337       C  0.94980509  0.27151949  0.01053459    -0.01700
C3338       C  0.94915655  0.26727939  0.99254623     0.06900
C3339       C  0.93282745  0.27359829  0.98217109    -0.07700
C3340       C  0.91696575  0.28370516  0.98945448     0.04300
C3341       C  0.91742013  0.28781727  0.00750048    -0.14900
C3342       C  0.93428026  0.28205431  0.01782584    -0.08300
C3343       C  0.96689673  0.25816916  0.98421086     0.05200
C3344       C  0.95584894  0.23103449  0.97853433    -0.09400
C3345       C  0.97280022  0.22158212  0.97186074     0.00200
C3346       C  0.50201961  0.24128337  0.97055398     0.00100
C3347       C  0.51277337  0.26883143  0.97528009    -0.12900
C3348       C  0.49608936  0.27842654  0.98172902     0.00600
C3349       C  0.96075074  0.19310626  0.96728704     0.39900
C3350       C  0.50846005  0.30670745  0.98689813     0.36500
C3351       C  0.96558605  0.26440574  0.02181559     0.36200
C3352       C  0.90089048  0.29031810  0.97805784     0.37000
N3353       N  0.95103850  0.17026899  0.96360780    -0.43800
N3354       N  0.51832851  0.32934518  0.99107277    -0.44300
N3355       N  0.88797265  0.29564223  0.96898555    -0.41600
N3356       N  0.97804413  0.25859938  0.03096327    -0.43100
H3357       H  0.93444903  0.28469030  0.03169890     0.13100
H3358       H  0.93268203  0.27084893  0.96831325     0.09600
H3359       H  0.93411908  0.21701191  0.97989718     0.10700
H3360       H  0.53461163  0.28281650  0.97455873     0.16500
C3361       C  0.71745631  0.25314125  0.04101578    -0.01700
C3362       C  0.70683282  0.23944542  0.02523096     0.06900
C3363       C  0.72422099  0.23685782  0.01354182    -0.07700
C3364       C  0.75165734  0.24708663  0.01734459     0.04300
C3365       C  0.76235872  0.26015986  0.03337098    -0.14900
C3366       C  0.74505711  0.26325973  0.04500339    -0.08300
C3367       C  0.67842388  0.22977203  0.01960896     0.05200
C3368       C  0.67007053  0.24907817  0.01739078    -0.09400
C3369       C  0.64521059  0.24194050  0.00954074     0.00200
C3370       C  0.62832388  0.21497081  0.00337439     0.00100
C3371       C  0.63641350  0.19545603  0.00593940    -0.12900
C3372       C  0.66109087  0.20255693  0.01418422     0.00600
C3373       C  0.63833842  0.26319885  0.00730479     0.39900
C3374       C  0.66820092  0.18161062  0.01704538     0.36500
C3375       C  0.70044739  0.25691174  0.05330302     0.36200
C3376       C  0.76852382  0.24524132  0.00399090     0.37000
N3377       N  0.63293256  0.28031474  0.00564611    -0.43800
N3378       N  0.67390726  0.16484766  0.01941747    -0.44300
N3379       N  0.78195038  0.24388785  0.99320240    -0.41600
N3380       N  0.68686365  0.26011100  0.06310648    -0.43100
H3381       H  0.75300362  0.27332931  0.05726654     0.13100
H3382       H  0.71640570  0.22739016  0.00108693     0.09600
H3383       H  0.68353511  0.27012666  0.02122742     0.10700
H3384       H  0.62334969  0.17459835  0.00162664     0.16500
O3385       O  0.54137762  0.74268712  0.97609663    -0.85100
O3386       O  0.53216026  0.70279293  0.00018529    -0.82100
C3387       C  0.52851280  0.68012520  0.00578282     0.98400
O3388       O  0.54109634  0.66916407  0.99883850    -0.82100
O3389       O  0.51774823  0.64825118  0.96723215    -0.84800
C3390       C  0.50993759  0.64881402  0.95208871     1.02900
O3391       O  0.52275251  0.67004744  0.94304774    -0.77600
O3392       O  0.51522009  0.71031692  0.95817074    -0.77700
C3393       C  0.51898676  0.72937532  0.96832283     1.02900
O3394       O  0.59664394  0.75489897  0.97226662    -0.85100
O3395       O  0.58845744  0.71994881  0.99979004    -0.82100
C3396       C  0.60275025  0.70989515  0.99493402     0.98400
O3397       O  0.59468759  0.69278821  0.98279356    -0.82200
O3398       O  0.57098379  0.66959624  0.95158243    -0.84800
C3399       C  0.58198687  0.68666700  0.93930506     1.02900
O3400       O  0.57863333  0.70717077  0.93824104    -0.77600
O3401       O  0.57126062  0.74918443  0.94970097    -0.77700
C3402       C  0.59365283  0.76268849  0.95751606     1.02800
Cr3403     Cr  0.56408909  0.72816200  0.98584473     1.93700
Cr3404     Cr  0.55616348  0.67233540  0.97479290     1.93200
Cr3405     Cr  0.54747603  0.70872472  0.94894977     1.39100
O3406       O  0.55587350  0.70281463  0.96986488    -1.22800
O3407       O  0.78161696  0.96592406  0.85374522    -0.85100
O3408       O  0.80601715  0.94335297  0.83538263    -0.82100
C3409       C  0.83091061  0.96217402  0.83476306     0.98400
O3410       O  0.84593396  0.96688184  0.84783006    -0.82100
O3411       O  0.86018814  0.97330320  0.88221996    -0.84800
C3412       C  0.85775716  0.99362252  0.88645854     1.02900
O3413       O  0.83463364  0.99168641  0.88596558    -0.77600
O3414       O  0.77916055  0.97121687  0.88149271    -0.77700
C3415       C  0.77618681  0.97676926  0.86607442     1.02900
O3416       O  0.74870959  0.91530486  0.87293909    -0.85100
O3417       O  0.77573187  0.89399842  0.85630254    -0.82100
C3418       C  0.79407246  0.88982269  0.85068174     0.98400
O3419       O  0.81877476  0.90859193  0.85135543    -0.82200
O3420       O  0.82748496  0.91529612  0.88685060    -0.84800
C3421       C  0.82623686  0.92210709  0.90220853     1.02900
O3422       O  0.82350756  0.94279753  0.90500420    -0.77600
O3423       O  0.77029116  0.92168967  0.89752321    -0.77700
C3424       C  0.74878971  0.90971542  0.88882150     1.02800
Cr3425     Cr  0.77992179  0.93049873  0.85572122     1.93700
Cr3426     Cr  0.83595584  0.94107664  0.86733845     1.93200
Cr3427     Cr  0.80228672  0.95609284  0.89098144     1.39100
O3428       O  0.80594360  0.94257113  0.87131789    -1.22800
O3429       O  0.77877497  0.81606291  0.31949570    -0.85100
O3430       O  0.80375997  0.86129567  0.33901661    -0.82100
C3431       C  0.82844956  0.86672493  0.33920210     0.98400
O3432       O  0.84329222  0.87746666  0.32609551    -0.82100
O3433       O  0.85766078  0.88635023  0.29175232    -0.84800
C3434       C  0.85410824  0.86332280  0.28700617     1.02900
O3435       O  0.83052417  0.84284795  0.28708367    -0.77600
O3436       O  0.77541347  0.80873744  0.29179870    -0.77700
C3437       C  0.77321897  0.79991578  0.30710536     1.02900
O3438       O  0.74629942  0.83563948  0.30185246    -0.85100
O3439       O  0.77440003  0.88277461  0.31985674    -0.82100
C3440       C  0.79345499  0.90495670  0.32540687     0.98400
O3441       O  0.81803649  0.91082693  0.32359833    -0.82200
O3442       O  0.82705340  0.91413651  0.28810101    -0.84800
C3443       C  0.82520707  0.90644740  0.27259925     1.02900
O3444       O  0.82082768  0.88253584  0.26929782    -0.77600
O3445       O  0.76735192  0.85113703  0.27702557    -0.77700
C3446       C  0.74629893  0.84214614  0.28616459     1.02800
Cr3447     Cr  0.77767693  0.84999204  0.31879789     1.93700
Cr3448     Cr  0.83422002  0.89498499  0.30710917     1.93200
Cr3449     Cr  0.79893185  0.84751839  0.28286075     1.39100
O3450       O  0.80341647  0.86423125  0.30289431    -1.22800
O3451       O  0.54806680  0.81202436  0.19648118    -0.85100
O3452       O  0.53689274  0.84177072  0.17341571    -0.82100
C3453       C  0.53047738  0.85913973  0.16849715     0.98400
O3454       O  0.54128880  0.88245634  0.17563114    -0.82100
O3455       O  0.51454616  0.87254709  0.20683358    -0.84800
C3456       C  0.50730907  0.86291584  0.22185599     1.02900
O3457       O  0.52349609  0.85961562  0.23125105    -0.77600
O3458       O  0.52057099  0.81420873  0.21546610    -0.77700
C3459       C  0.52573447  0.80062663  0.20467201     1.02900
O3460       O  0.60204390  0.85780852  0.20155488    -0.85100
O3461       O  0.59199553  0.88545514  0.17543987    -0.82100
C3462       C  0.60382598  0.90949045  0.18130004     0.98400
O3463       O  0.59293547  0.91579752  0.19329660    -0.82200
O3464       O  0.56578610  0.90905323  0.22383608    -0.84800
C3465       C  0.57970456  0.90523281  0.23518422     1.02900
O3466       O  0.58016800  0.88304729  0.23543518    -0.77600
O3467       O  0.57665565  0.83522643  0.22358636    -0.77700
C3468       C  0.59924409  0.84578187  0.21583242     1.02800
Cr3469     Cr  0.56906493  0.85039896  0.18788773     1.93700
Cr3470     Cr  0.55395002  0.89290186  0.20013093     1.93200
Cr3471     Cr  0.55070541  0.84910000  0.22488583     1.39100
O3472       O  0.55793211  0.86427637  0.20424841    -1.22800
O3473       O  0.81280871  0.53444714  0.15461440    -0.85100
O3474       O  0.85861431  0.55613894  0.17388924    -0.82100
C3475       C  0.86536108  0.53774321  0.17454572     0.98400
O3476       O  0.87530257  0.53271404  0.16137689    -0.82100
O3477       O  0.88402055  0.52653618  0.12659353    -0.84800
C3478       C  0.86137042  0.50741853  0.12107149     1.02900
O3479       O  0.84033387  0.50931572  0.12273100    -0.77600
O3480       O  0.80580335  0.53014560  0.12685539    -0.77700
C3481       C  0.79679700  0.52414150  0.14213878     1.02900
O3482       O  0.83121113  0.58560984  0.13594895    -0.85100
O3483       O  0.87870839  0.60614096  0.15337670    -0.82100
C3484       C  0.90121145  0.61010706  0.15883540     0.98400
O3485       O  0.90694276  0.59111020  0.15815752    -0.82200
O3486       O  0.91015250  0.58488316  0.12269374    -0.84800
C3487       C  0.90246157  0.57851268  0.10724104     1.02900
O3488       O  0.87896827  0.55824598  0.10418112    -0.77600
O3489       O  0.84731278  0.57980074  0.11151615    -0.77700
C3490       C  0.83729826  0.59141244  0.12012058     1.02800
Cr3491     Cr  0.84641706  0.56974424  0.15331616     1.93700
Cr3492     Cr  0.89188685  0.55870830  0.14197384     1.93200
Cr3493     Cr  0.84419975  0.54509130  0.11786156     1.39100
O3494       O  0.86079286  0.55793422  0.13774456    -1.22800
O3495       O  0.80312688  0.75869294  0.03150406    -0.85100
O3496       O  0.83397776  0.80066655  0.00865681    -0.82100
C3497       C  0.85289792  0.82356416  0.00336502     0.98400
O3498       O  0.87649251  0.83436296  0.01014813    -0.82100
O3499       O  0.87035365  0.85553387  0.04039708    -0.84800
C3500       C  0.85782623  0.85426999  0.05413149     1.02900
O3501       O  0.84854781  0.83358514  0.06382979    -0.77600
O3502       O  0.80489678  0.79021553  0.04831222    -0.77700
C3503       C  0.79178904  0.77093131  0.03787623     1.02900
O3504       O  0.84815469  0.75081787  0.03736898    -0.85100
O3505       O  0.87565396  0.78680954  0.01034528    -0.82100
C3506       C  0.89928962  0.79652789  0.01638688     0.98400
O3507       O  0.90619539  0.81231392  0.02917147    -0.82200
O3508       O  0.90198077  0.83653756  0.05879362    -0.84800
C3509       C  0.89479992  0.82041183  0.07160618     1.02900
O3510       O  0.87095776  0.80012136  0.07268874    -0.77600
O3511       O  0.82623047  0.75522589  0.05939828    -0.77700
C3512       C  0.83678469  0.74272562  0.05195314     1.02800
Cr3513     Cr  0.84137314  0.77615098  0.02317565     1.93700
Cr3514     Cr  0.88648478  0.83230741  0.03495208     1.93200
Cr3515     Cr  0.83885224  0.79523274  0.05948726     1.39100
O3516       O  0.85580766  0.80149537  0.03936862    -1.22800
O3517       O  0.73786644  0.69223303  0.81172527    -0.85100
O3518       O  0.69597988  0.66196765  0.83442112    -0.82100
C3519       C  0.67285743  0.64330931  0.83956165     0.98400
O3520       O  0.66167812  0.61990058  0.83238141    -0.82100
O3521       O  0.64415819  0.62459688  0.79984690    -0.84800
C3522       C  0.64609722  0.63282579  0.78448287     1.02900
O3523       O  0.66801136  0.64135885  0.77619154    -0.77600
O3524       O  0.70825956  0.68813178  0.79220022    -0.77700
C3525       C  0.72658836  0.70263257  0.80294086     1.02900
O3526       O  0.74897961  0.64832993  0.80877803    -0.85100
O3527       O  0.71068409  0.62100984  0.83480054    -0.82100
C3528       C  0.70153703  0.59709473  0.82932041     0.98400
O3529       O  0.68534367  0.58900688  0.81670348    -0.82200
O3530       O  0.66472003  0.59166716  0.78502635    -0.84800
C3531       C  0.68251930  0.59749825  0.77328032     1.02900
O3532       O  0.70395639  0.62069385  0.77314434    -0.77600
O3533       O  0.74610008  0.66915361  0.78570719    -0.77700
C3534       C  0.75862636  0.65998856  0.79444976     1.02800
Cr3535     Cr  0.72157316  0.65461576  0.82112511     1.93700
Cr3536     Cr  0.66636911  0.60856060  0.80830580     1.93200
Cr3537     Cr  0.70592681  0.65378479  0.78347472     1.39100
O3538       O  0.69767788  0.63887701  0.80428389    -1.22800
O3539       O  0.96400365  0.68576721  0.68952974    -0.85100
O3540       O  0.94054747  0.64059572  0.67005643    -0.82100
C3541       C  0.95976833  0.63516511  0.66859925     0.98400
O3542       O  0.96519528  0.62428038  0.68108958    -0.82100
O3543       O  0.97224873  0.61299435  0.71498707    -0.84800
C3544       C  0.99239202  0.63511724  0.72031156     1.02900
O3545       O  0.99080101  0.65648795  0.72038088    -0.77600
O3546       O  0.97152639  0.69233136  0.71725629    -0.77700
C3547       C  0.97648759  0.70125333  0.70188225     1.02900
O3548       O  0.91490025  0.66858581  0.70989531    -0.85100
O3549       O  0.89208566  0.62050693  0.69202127    -0.82100
C3550       C  0.88772715  0.59839645  0.68547825     0.98400
O3551       O  0.90678601  0.59275428  0.68495685    -0.82200
O3552       O  0.91453657  0.58765997  0.71993521    -0.84800
C3553       C  0.92155669  0.59432416  0.73543626     1.02900
O3554       O  0.94172290  0.61778602  0.73889253    -0.77600
O3555       O  0.92178504  0.65136218  0.73338546    -0.77700
C3556       C  0.91043928  0.66261941  0.72583916     1.02800
Cr3557     Cr  0.92868615  0.65270576  0.69147942     1.93700
Cr3558     Cr  0.93981255  0.60660931  0.70056972     1.93200
Cr3559     Cr  0.95555529  0.65344937  0.72593450     1.39100
O3560       O  0.94134396  0.63769906  0.70602150    -1.22800
O3561       O  0.94979009  0.75775437  0.47599201    -0.85100
O3562       O  0.95861246  0.79731479  0.49985090    -0.82100
C3563       C  0.96245187  0.82002393  0.50535880     0.98400
O3564       O  0.94871772  0.83030567  0.49924027    -0.82100
O3565       O  0.97351195  0.85197131  0.46840587    -0.84800
C3566       C  0.98277308  0.85146233  0.45372756     1.02900
O3567       O  0.96975039  0.83157810  0.44371166    -0.77600
O3568       O  0.97572805  0.79044964  0.45807359    -0.77700
C3569       C  0.97199459  0.77111950  0.46792724     1.02900
O3570       O  0.89459265  0.74562222  0.47211406    -0.85100
O3571       O  0.90196951  0.78044664  0.49943909    -0.82100
C3572       C  0.88741148  0.79013232  0.49425148     0.98400
O3573       O  0.89580318  0.80715697  0.48202767    -0.82200
O3574       O  0.92141339  0.83219329  0.45164747    -0.84800
C3575       C  0.91031701  0.81544794  0.43929892     1.02900
O3576       O  0.91336896  0.79481016  0.43809372    -0.77600
O3577       O  0.92002000  0.75224017  0.44930284    -0.77700
C3578       C  0.89779388  0.73824096  0.45731713     1.02800
Cr3579     Cr  0.92677206  0.77219342  0.48568322     1.93700
Cr3580     Cr  0.93476416  0.82809768  0.47499125     1.93200
Cr3581     Cr  0.94407419  0.79264284  0.44888642     1.39100
O3582       O  0.93519001  0.79781684  0.46981216    -1.22800
O3583       O  0.71386490  0.52828341  0.35666676    -0.85100
O3584       O  0.69223379  0.55125746  0.33594315    -0.82100
C3585       C  0.66699324  0.53362364  0.33531624     0.98400
O3586       O  0.65162882  0.53053008  0.34797525    -0.82100
O3587       O  0.63655458  0.52522729  0.38225177    -0.84800
C3588       C  0.63876386  0.50523644  0.38776629     1.02900
O3589       O  0.66175468  0.50688481  0.38817406    -0.77600
O3590       O  0.71732659  0.52684240  0.38464318    -0.77700
C3591       C  0.71932303  0.51885377  0.36976383     1.02900
O3592       O  0.74806240  0.58025182  0.37408161    -0.85100
O3593       O  0.72347593  0.60206662  0.35456127    -0.82100
C3594       C  0.70534003  0.60720050  0.34966715     0.98400
O3595       O  0.68034801  0.58922071  0.35092248    -0.82200
O3596       O  0.66977729  0.58371786  0.38600816    -0.84800
C3597       C  0.66952639  0.57697265  0.40158040     1.02900
O3598       O  0.67234102  0.55659879  0.40507984    -0.77600
O3599       O  0.72563738  0.57765189  0.39779889    -0.77700
C3600       C  0.74761930  0.58730918  0.38959567     1.02800
Cr3601     Cr  0.71746200  0.56474506  0.35646793     1.93700
Cr3602     Cr  0.66171560  0.55704091  0.36708132     1.93200
Cr3603     Cr  0.69400584  0.54275385  0.39230994     1.39100
O3604       O  0.69112129  0.55491358  0.37186422    -1.22800
O3605       O  0.68919162  0.95300997  0.64350543    -0.85100
O3606       O  0.65738449  0.96385974  0.66529247    -0.82100
C3607       C  0.63871656  0.96867343  0.66984370     0.98400
O3608       O  0.61579478  0.95704115  0.66207523    -0.82100
O3609       O  0.62212993  0.98020089  0.62974722    -0.84800
C3610       C  0.63095902  0.98682428  0.61454358     1.02900
O3611       O  0.64111982  0.97445896  0.60678642    -0.77600
O3612       O  0.68665207  0.97967010  0.62400788    -0.77700
C3613       C  0.70052101  0.97473031  0.63467758     1.02900
O3614       O  0.64460004  0.89817510  0.63889177    -0.85100
O3615       O  0.61609949  0.90842391  0.66433727    -0.82100
C3616       C  0.59258352  0.89422277  0.65814060     0.98400
O3617       O  0.58572913  0.90304649  0.64531722    -0.82200
O3618       O  0.59068732  0.92753076  0.61399395    -0.84800
C3619       C  0.59732967  0.91592933  0.60246041     1.02900
O3620       O  0.62063835  0.91804945  0.60280303    -0.77600
O3621       O  0.66764845  0.92331562  0.61684006    -0.77700
C3622       C  0.65688135  0.90076005  0.62476520     1.02800
Cr3623     Cr  0.65069063  0.93148674  0.65168201     1.93700
Cr3624     Cr  0.60591178  0.94184250  0.63769904     1.93200
Cr3625     Cr  0.65286358  0.94848385  0.61422411     1.39100
O3626       O  0.63644015  0.94091170  0.63453086    -1.22800
O3627       O  0.68817437  0.73457575  0.53045323    -0.85100
O3628       O  0.65607994  0.69659458  0.50637551    -0.82100
C3629       C  0.63645297  0.67472334  0.50050325     0.98400
O3630       O  0.61314089  0.66424596  0.50766895    -0.82100
O3631       O  0.61613203  0.64109952  0.53849628    -0.84800
C3632       C  0.62543855  0.64095317  0.55326766     1.02900
O3633       O  0.63389428  0.66133733  0.56309542    -0.77600
O3634       O  0.68160873  0.70212780  0.54862506    -0.77700
C3635       C  0.69669095  0.72044683  0.53796625     1.04100
O3636       O  0.64616729  0.74856191  0.53581216    -0.85100
O3637       O  0.61782075  0.71492102  0.50827901    -0.82100
C3638       C  0.59395461  0.70568417  0.51390772     0.98400
O3639       O  0.58526596  0.68848149  0.52602127    -0.82200
O3640       O  0.58586142  0.66244976  0.55572148    -0.84800
C3641       C  0.59172184  0.67914266  0.56806248     1.02900
O3642       O  0.61569032  0.69932897  0.56935386    -0.77600
O3643       O  0.66549677  0.74109648  0.55796274    -0.77700
C3644       C  0.65716045  0.75542116  0.55051196     1.02800
Cr3645     Cr  0.65076408  0.72178829  0.52148776     1.93700
Cr3646     Cr  0.60247762  0.66635284  0.53226771     1.93200
Cr3647     Cr  0.64811789  0.70061498  0.55815669     1.39100
O3648       O  0.63375692  0.69595107  0.53729109    -1.22800
C3649       C  0.59916387  0.56893626  0.56919876    -0.01700
C3650       C  0.62159895  0.57207272  0.57892062     0.06900
C3651       C  0.64610720  0.59702974  0.57852994    -0.07700
C3652       C  0.64824078  0.61919063  0.56921186     0.04300
C3653       C  0.62547643  0.61656721  0.56005430    -0.14900
C3654       C  0.60124610  0.59117793  0.55980964    -0.08300
C3655       C  0.62070820  0.54936137  0.58898506     0.05200
C3656       C  0.62069888  0.52792946  0.58003842    -0.09400
C3657       C  0.62294083  0.50757133  0.58883326     0.00200
C3658       C  0.62629539  0.50901293  0.60702834     0.00100
C3659       C  0.62479021  0.52975652  0.61606687    -0.12900
C3660       C  0.62184006  0.54979011  0.60717046     0.00600
C3661       C  0.62833622  0.98785070  0.57619768     0.39900
C3662       C  0.61935831  0.57023382  0.61687383     0.36500
C3663       C  0.57355777  0.54349911  0.56934784     0.36200
C3664       C  0.67413137  0.64437067  0.56919348     0.37000
N3665       N  0.62831538  0.97098380  0.56771974    -0.43800
N3666       N  0.61699666  0.58645756  0.62459216    -0.44300
N3667       N  0.69500489  0.66438966  0.56922210    -0.41600
N3668       N  0.55306126  0.52307111  0.56955420    -0.43100
H3669       H  0.58357840  0.58911414  0.55302140     0.13100
H3670       H  0.66359572  0.59919536  0.58560678     0.09600
H3671       H  0.61916561  0.52726154  0.56606286     0.10700
H3672       H  0.62623989  0.53052024  0.63003423     0.16500
C3673       C  0.68218429  0.86651581  0.59448224    -0.01700
C3674       C  0.66048938  0.83927026  0.59452522     0.06900
C3675       C  0.63921164  0.83135009  0.60656794    -0.07700
C3676       C  0.63847766  0.85056633  0.61771244     0.04300
C3677       C  0.65924656  0.87824152  0.61674357    -0.14900
C3678       C  0.68140479  0.88558764  0.60551605    -0.08300
C3679       C  0.65994858  0.81885380  0.58221632     0.05200
C3680       C  0.68159046  0.81351473  0.58238394    -0.09400
C3681       C  0.68206458  0.79447086  0.57117061     0.00200
C3682       C  0.66008450  0.77964716  0.55970331     0.00100
C3683       C  0.63882323  0.78563231  0.55905309    -0.12900
C3684       C  0.63860145  0.80509043  0.57018930     0.00600
C3685       C  0.70547402  0.79065089  0.57166428     0.39900
C3686       C  0.61629962  0.81055657  0.56907990     0.36500
C3687       C  0.70495105  0.87584426  0.58270626     0.36200
C3688       C  0.61564232  0.84154025  0.62936277     0.37000
N3689       N  0.72424303  0.78762766  0.57202900    -0.43800
N3690       N  0.59841551  0.81492708  0.56822692    -0.44300
N3691       N  0.59741119  0.83424471  0.63877270    -0.41600
N3692       N  0.72331343  0.88334200  0.57338265    -0.43100
H3693       H  0.69772156  0.90661244  0.60483736     0.13100
H3694       H  0.62296442  0.81029981  0.60702040     0.09600
H3695       H  0.69830277  0.82426241  0.59154365     0.10700
H3696       H  0.62181981  0.77431123  0.55036657     0.16500
C3697       C  0.67243386  0.66230546  0.46292088    -0.01700
C3698       C  0.65167140  0.63755997  0.45596141     0.06900
C3699       C  0.62562561  0.62519977  0.46344969    -0.07700
C3700       C  0.61999471  0.63681538  0.47772925     0.04300
C3701       C  0.64081201  0.66167105  0.48489656    -0.14900
C3702       C  0.66685947  0.67416770  0.47711158    -0.08300
C3703       C  0.65698506  0.62287883  0.44185259     0.05200
C3704       C  0.65425240  0.59733068  0.44556106    -0.09400
C3705       C  0.65834729  0.58214060  0.43284097     0.00200
C3706       C  0.66520143  0.59240278  0.41573618     0.00100
C3707       C  0.66800768  0.61814836  0.41209790    -0.12900
C3708       C  0.66395137  0.63332727  0.42491493     0.00600
C3709       C  0.65487375  0.55594434  0.43787127     0.39900
C3710       C  0.66648764  0.65926586  0.42026306     0.36500
C3711       C  0.69991709  0.67527421  0.45620733     0.36200
C3712       C  0.59275235  0.62219013  0.48481290     0.37000
N3713       N  0.65212026  0.53500557  0.44200658    -0.43800
N3714       N  0.66865753  0.68010421  0.41649889    -0.44300
N3715       N  0.57089242  0.61030343  0.49044359    -0.41600
N3716       N  0.72191075  0.68561433  0.45077680    -0.43100
H3717       H  0.68322244  0.69310064  0.48228310     0.13100
H3718       H  0.60963632  0.60601176  0.45823390     0.09600
H3719       H  0.64886565  0.58918905  0.45855578     0.10700
H3720       H  0.67346484  0.62656560  0.39919340     0.16500
C3721       C  0.53310374  0.88590740  0.57480031    -0.01700
C3722       C  0.53953975  0.87389567  0.56100040     0.06900
C3723       C  0.56497453  0.87526281  0.56089543    -0.07700
C3724       C  0.58398759  0.88840890  0.57418659     0.04300
C3725       C  0.57768434  0.90066087  0.58813484    -0.14900
C3726       C  0.55197584  0.89901905  0.58812980    -0.08300
C3727       C  0.51992151  0.85971985  0.54662673     0.05200
C3728       C  0.51395742  0.87508516  0.53500128    -0.09400
C3729       C  0.99654800  0.86309126  0.52142490     0.00200
C3730       C  0.98276168  0.83430484  0.51937581     0.00100
C3731       C  0.98922124  0.81883669  0.53068359    -0.12900
C3732       C  0.00826254  0.83131689  0.54400838     0.00600
C3733       C  0.49186831  0.87979853  0.50922133     0.39900
C3734       C  0.01388211  0.81436657  0.55528465     0.36500
C3735       C  0.50696750  0.88454395  0.57572078     0.36200
C3736       C  0.60971816  0.88895529  0.57292372     0.37000
N3737       N  0.48920398  0.89374568  0.49939833    -0.43800
N3738       N  0.01848297  0.80081256  0.56429300    -0.44300
N3739       N  0.63029040  0.88930744  0.57181752    -0.41600
N3740       N  0.98745324  0.88391413  0.57597052    -0.43100
H3741       H  0.54646442  0.90808185  0.59857867     0.13100
H3742       H  0.57004364  0.86607557  0.55028474     0.09600
H3743       H  0.52412505  0.89713762  0.53643958     0.10700
H3744       H  0.97918821  0.79680624  0.52922038     0.16500
C3745       C  0.55023134  0.90816355  0.44476302    -0.01700
C3746       C  0.54750930  0.91697188  0.42824285     0.06900
C3747       C  0.52212452  0.90450380  0.42011436    -0.07700
C3748       C  0.49945868  0.88297439  0.42802440     0.04300
C3749       C  0.50206579  0.87371111  0.44447354    -0.14900
C3750       C  0.52739035  0.88669120  0.45285991    -0.08300
C3751       C  0.57053910  0.93953152  0.41905725     0.05200
C3752       C  0.58620366  0.93352554  0.40780164    -0.09400
C3753       C  0.60653440  0.95406917  0.39759071     0.00200
C3754       C  0.61113842  0.98102870  0.39853778     0.00100
C3755       C  0.59512128  0.98682408  0.40971090    -0.12900
C3756       C  0.57497558  0.96631763  0.41998330     0.00600
C3757       C  0.63310939  0.44989010  0.38962494     0.39900
C3758       C  0.55905745  0.97308446  0.43141728     0.36500
C3759       C  0.57622533  0.92056627  0.45344532     0.36200
C3760       C  0.47370908  0.87112419  0.41903085     0.37000
N3761       N  0.64903734  0.44526887  0.38351717    -0.43800
N3762       N  0.54623664  0.97834094  0.44062786    -0.44300
N3763       N  0.45327839  0.86186130  0.41162302    -0.41600
N3764       N  0.59706228  0.93042613  0.46041956    -0.43100
H3765       H  0.52948762  0.87949874  0.46543553     0.13100
H3766       H  0.52009014  0.91161610  0.40749143     0.09600
H3767       H  0.58223401  0.91269902  0.40682835     0.10700
H3768       H  0.59884136  0.00755885  0.41077809     0.16500
C3769       C  0.81295658  0.65202467  0.39971886    -0.01700
C3770       C  0.81569715  0.64867197  0.41755257     0.06900
C3771       C  0.79720614  0.62419878  0.42569398    -0.07700
C3772       C  0.77564797  0.60344290  0.41656066     0.04300
C3773       C  0.77263383  0.60679083  0.39873756    -0.14900
C3774       C  0.79179128  0.63083678  0.39037978    -0.08300
C3775       C  0.83692751  0.67064330  0.42826975     0.05200
C3776       C  0.82887270  0.68073205  0.44229181    -0.09400
C3777       C  0.84822486  0.70181084  0.45263006     0.00200
C3778       C  0.87626094  0.71331583  0.44880199     0.00100
C3779       C  0.88414807  0.70220679  0.43520222    -0.12900
C3780       C  0.86484909  0.68094557  0.42509251     0.00600
C3781       C  0.83858960  0.71172388  0.46657288     0.39900
C3782       C  0.87419812  0.66986539  0.41165979     0.36500
C3783       C  0.83035386  0.67759770  0.39100937     0.36200
C3784       C  0.75650822  0.57922041  0.42597472     0.37000
N3785       N  0.83074825  0.71950916  0.47777190    -0.43800
N3786       N  0.88161472  0.66101542  0.40084297    -0.44300
N3787       N  0.74099781  0.55998431  0.43355336    -0.41600
N3788       N  0.84425075  0.69809729  0.38402163    -0.43100
H3789       H  0.78918501  0.63378877  0.37683682     0.13100
H3790       H  0.79929057  0.62158050  0.43937439     0.09600
H3791       H  0.80732557  0.67239274  0.44497020     0.10700
H3792       H  0.90558291  0.71039844  0.43224367     0.16500
C3793       C  0.53701188  0.77338572  0.47945658    -0.01700
C3794       C  0.52871954  0.74546286  0.48142961     0.06900
C3795       C  0.50242579  0.72559107  0.47646714    -0.07700
C3796       C  0.98749952  0.73666387  0.46721317     0.04300
C3797       C  0.99311580  0.76356087  0.47041376    -0.14900
C3798       C  0.01734496  0.78199407  0.47881407    -0.08300
C3799       C  0.54635077  0.73623912  0.48959730     0.05200
C3800       C  0.54562602  0.73334515  0.50760470    -0.09400
C3801       C  0.56042461  0.72275228  0.51580693     0.00200
C3802       C  0.57650850  0.71518371  0.50587989     0.00100
C3803       C  0.57738929  0.71839014  0.48786081    -0.12900
C3804       C  0.56215595  0.72844763  0.47966940     0.00600
C3805       C  0.55953283  0.72073541  0.53440252     0.39900
C3806       C  0.56264325  0.73019545  0.46108004     0.36500
C3807       C  0.56422873  0.79444226  0.48399833     0.36200
C3808       C  0.96303868  0.71717020  0.45831907     0.37000
N3809       N  0.55888419  0.71907634  0.54929860    -0.43800
N3810       N  0.56287944  0.73144307  0.44617416    -0.44300
N3811       N  0.94347070  0.70150244  0.45118369    -0.41600
N3812       N  0.58606471  0.81135695  0.48759544    -0.43100
H3813       H  0.02153648  0.80260029  0.48147781     0.13100
H3814       H  0.49622222  0.70410777  0.47770679     0.09600
H3815       H  0.53324690  0.73914754  0.51523114     0.10700
H3816       H  0.58974011  0.71266924  0.48014577     0.16500
C3817       C  0.75730939  0.73518683  0.51065365    -0.01700
C3818       C  0.77859701  0.74523493  0.52283791     0.06900
C3819       C  0.77227674  0.74396457  0.54049227    -0.07700
C3820       C  0.74525510  0.73413304  0.54596603     0.04300
C3821       C  0.72435326  0.72593054  0.53361793    -0.14900
C3822       C  0.73058490  0.72604808  0.51608448    -0.08300
C3823       C  0.80748454  0.75813874  0.51709466     0.05200
C3824       C  0.81817683  0.78168635  0.50672409    -0.09400
C3825       C  0.84431784  0.79305528  0.49948148     0.00200
C3826       C  0.86042009  0.78075046  0.50262619     0.00100
C3827       C  0.84996983  0.75783879  0.51369744    -0.12900
C3828       C  0.82383043  0.74652946  0.52087348     0.00600
C3829       C  0.85382390  0.81724728  0.48893348     0.39900
C3830       C  0.81379390  0.72230486  0.53144480     0.36500
C3831       C  0.76245947  0.73408280  0.49249300     0.36200
C3832       C  0.73971010  0.73411716  0.56413567     0.37000
N3833       N  0.86135748  0.83666151  0.48051338    -0.43800
N3834       N  0.80578768  0.70291987  0.53994483    -0.44300
N3835       N  0.73521362  0.73400419  0.57871068    -0.41600
N3836       N  0.76673223  0.73315387  0.47798037    -0.43100
H3837       H  0.71454286  0.71945504  0.50655931     0.13100
H3838       H  0.78854024  0.75142352  0.54992684     0.09600
H3839       H  0.80574133  0.79090461  0.50400272     0.10700
H3840       H  0.86188669  0.74805290  0.51638875     0.16500
C3841       C  0.51262356  0.63844120  0.63613796    -0.01700
C3842       C  0.51369618  0.65703495  0.62359995     0.06900
C3843       C  0.99455761  0.66578747  0.62505095    -0.07700
C3844       C  0.97712786  0.65958271  0.63941138     0.04300
C3845       C  0.97603069  0.64109227  0.65225560    -0.14900
C3846       C  0.49501756  0.63166015  0.65034003    -0.08300
C3847       C  0.53252062  0.66456795  0.60850118     0.05200
C3848       C  0.52582501  0.64573920  0.59508338    -0.09400
C3849       C  0.54425125  0.65023992  0.58164920     0.00200
C3850       C  0.57045967  0.67424973  0.58143659     0.00100
C3851       C  0.57661455  0.69355824  0.59468941    -0.12900
C3852       C  0.55798240  0.68891590  0.60809192     0.00600
C3853       C  0.53565608  0.62923232  0.56866179     0.39900
C3854       C  0.56570994  0.70890769  0.62165942     0.36500
C3855       C  0.52991578  0.62647277  0.63481551     0.36200
C3856       C  0.96139852  0.67322774  0.64081396     0.37000
N3857       N  0.52866559  0.61230791  0.55830472    -0.43800
N3858       N  0.57177203  0.72485332  0.63257926    -0.44300
N3859       N  0.94878939  0.68417525  0.64191737    -0.41600
N3860       N  0.54386125  0.61699991  0.63364852    -0.43100
H3861       H  0.49484087  0.61750583  0.65988657     0.13100
H3862       H  0.99557125  0.68023441  0.61541695     0.09600
H3863       H  0.50620022  0.62691373  0.59537870     0.10700
H3864       H  0.59637197  0.71227471  0.59481602     0.16500
C3865       C  0.56945835  0.83174691  0.68624054    -0.01700
C3866       C  0.54312608  0.81394218  0.68002279     0.06900
C3867       C  0.53200112  0.82296861  0.66717295    -0.07700
C3868       C  0.54709852  0.84930971  0.66013094     0.04300
C3869       C  0.57398707  0.86709311  0.66603388    -0.14900
C3870       C  0.58450861  0.85799307  0.67933992    -0.08300
C3871       C  0.52759220  0.78530539  0.68608958     0.05200
C3872       C  0.51686928  0.77965337  0.70289329    -0.09400
C3873       C  0.50150472  0.75262667  0.70883219     0.00200
C3874       C  0.99606863  0.73015582  0.69767813     0.00100
C3875       C  0.00775406  0.73593816  0.68106453    -0.12900
C3876       C  0.52389549  0.76369232  0.67533370     0.00600
C3877       C  0.48985092  0.74792946  0.72592073     0.39900
C3878       C  0.03473210  0.76746140  0.65798004     0.36500
C3879       C  0.58199693  0.82305491  0.69909583     0.36200
C3880       C  0.53450442  0.85711970  0.64679118     0.37000
N3881       N  0.48051704  0.74416220  0.73962879    -0.43800
N3882       N  0.04396901  0.77115444  0.64424627    -0.44300
N3883       N  0.52428457  0.86326486  0.63611907    -0.41600
N3884       N  0.59208226  0.81606674  0.70935385    -0.43100
H3885       H  0.60504787  0.87109633  0.68410489     0.13100
H3886       H  0.01138515  0.80873240  0.66252993     0.09600
H3887       H  0.52007851  0.79640098  0.71124168     0.10700
H3888       H  0.00438892  0.71936583  0.67248786     0.16500
C3889       C  0.76782496  0.54163067  0.64446523    -0.01700
C3890       C  0.78427184  0.53141917  0.65106787     0.06900
C3891       C  0.77401980  0.50315899  0.65124884    -0.07700
C3892       C  0.74752955  0.48501810  0.64568862     0.04300
C3893       C  0.73009994  0.99368398  0.63712743    -0.14900
C3894       C  0.74044483  0.02199689  0.63629219    -0.08300
C3895       C  0.81127793  0.54939069  0.65917787     0.05200
C3896       C  0.81239142  0.56437404  0.67385236    -0.09400
C3897       C  0.83681578  0.57982848  0.68285198     0.00200
C3898       C  0.86092624  0.58038866  0.67724984     0.00100
C3899       C  0.85972589  0.56514358  0.66262974    -0.12900
C3900       C  0.83525274  0.54987021  0.65354642     0.00600
C3901       C  0.83620142  0.59417902  0.69810092     0.39900
C3902       C  0.83536972  0.53548194  0.63819945     0.36500
C3903       C  0.77807619  0.57064413  0.64301878     0.36200
C3904       C  0.73887344  0.45621163  0.64568875     0.37000
N3905       N  0.83558526  0.60559374  0.71032320    -0.43800
N3906       N  0.83601533  0.02000265  0.62471532    -0.44300
N3907       N  0.73208570  0.43318109  0.64565101    -0.41600
N3908       N  0.78634067  0.59390492  0.64176062    -0.43100
H3909       H  0.72718330  0.02977469  0.63241572     0.13100
H3910       H  0.78659326  0.49516285  0.65617694     0.09600
H3911       H  0.79390177  0.56355435  0.67850185     0.10700
H3912       H  0.87811160  0.56575565  0.65798345     0.16500
C3913       C  0.64706150  0.53154027  0.74703527    -0.01700
C3914       C  0.66257625  0.53864390  0.73165576     0.06900
C3915       C  0.68539673  0.56504075  0.73030315    -0.07700
C3916       C  0.69298522  0.58407704  0.74377720     0.04300
C3917       C  0.67712141  0.57724877  0.75910539    -0.14900
C3918       C  0.65430385  0.55070027  0.76044158    -0.08300
C3919       C  0.65559414  0.51913204  0.71680535     0.05200
C3920       C  0.63548446  0.01922335  0.70177263    -0.09400
C3921       C  0.62899487  0.00123473  0.68771405     0.00200
C3922       C  0.64383713  0.98747252  0.68484826     0.00100
C3923       C  0.66849276  0.49624555  0.69517521    -0.12900
C3924       C  0.67501030  0.51317655  0.70967953     0.00600
C3925       C  0.60745889  0.99796466  0.67627710     0.39900
C3926       C  0.70177620  0.52379022  0.71717947     0.36500
C3927       C  0.61529605  0.01629077  0.73980640     0.36200
C3928       C  0.71695125  0.61053221  0.74116758     0.37000
N3929       N  0.59013075  0.99538870  0.66717889    -0.43800
N3930       N  0.72325531  0.53234501  0.72313701    -0.44300
N3931       N  0.73623644  0.63165162  0.73900661    -0.41600
N3932       N  0.59320129  0.99810114  0.73903787    -0.43100
H3933       H  0.64187086  0.54478553  0.77200974     0.13100
H3934       H  0.69733656  0.57094145  0.71852239     0.09600
H3935       H  0.62429807  0.02998609  0.70358610     0.10700
H3936       H  0.68403252  0.49238190  0.68998490     0.16500
C3937       C  0.53406112  0.60865924  0.74257500    -0.01700
C3938       C  0.55719890  0.63291653  0.74803616     0.06900
C3939       C  0.56011408  0.65817718  0.74333754    -0.07700
C3940       C  0.54000094  0.65962919  0.73364145     0.04300
C3941       C  0.51612678  0.63524898  0.72857807    -0.14900
C3942       C  0.51379457  0.60996354  0.73298889    -0.08300
C3943       C  0.57929921  0.63233739  0.75788186     0.05200
C3944       C  0.59637121  0.62507182  0.74917590    -0.09400
C3945       C  0.61792888  0.62477214  0.75769510     0.00200
C3946       C  0.62256375  0.63164728  0.77543553     0.00100
C3947       C  0.60505698  0.63837246  0.78425384    -0.12900
C3948       C  0.58369766  0.63908567  0.77555066     0.00600
C3949       C  0.63460831  0.61685721  0.74787747     0.39900
C3950       C  0.56661289  0.64685880  0.78494149     0.36500
C3951       C  0.53043372  0.58220007  0.74703025     0.36200
C3952       C  0.04459211  0.68634870  0.72936630     0.37000
N3953       N  0.64794127  0.61063147  0.73990669    -0.43800
N3954       N  0.55297962  0.65319213  0.79246495    -0.44300
N3955       N  0.04846148  0.70797332  0.72597302    -0.41600
N3956       N  0.52762414  0.56103827  0.75060729    -0.43100
H3957       H  0.49572319  0.59104391  0.72938042     0.13100
H3958       H  0.57828055  0.67684311  0.74721831     0.09600
H3959       H  0.59292540  0.61982374  0.73559876     0.10700
H3960       H  0.60851014  0.64377648  0.79779870     0.16500
C3961       C  0.84783853  0.66664204  0.73836613    -0.01700
C3962       C  0.85054677  0.66912942  0.75650099     0.06900
C3963       C  0.87422806  0.67223001  0.76421394    -0.07700
C3964       C  0.89473861  0.67198017  0.75429354     0.04300
C3965       C  0.89157266  0.66813652  0.73615632    -0.14900
C3966       C  0.86842077  0.66644111  0.72834458    -0.08300
C3967       C  0.82885236  0.66832324  0.76771747     0.05200
C3968       C  0.81447724  0.64614414  0.77904061    -0.09400
C3969       C  0.79250898  0.64372445  0.78888326     0.00200
C3970       C  0.78462040  0.66373525  0.78733420     0.00100
C3971       C  0.80024161  0.68674579  0.77680940    -0.12900
C3972       C  0.82227373  0.68926477  0.76717443     0.00600
C3973       C  0.77751116  0.61981131  0.79961175     0.39900
C3974       C  0.83781898  0.71345800  0.75675750     0.36500
C3975       C  0.82353853  0.66293378  0.72986697     0.36200
C3976       C  0.91888275  0.67589585  0.76317051     0.37000
N3977       N  0.76550580  0.60067544  0.80823928    -0.43800
N3978       N  0.85037630  0.73280633  0.74840126    -0.44300
N3979       N  0.93818409  0.67901403  0.77030711    -0.41600
N3980       N  0.80404803  0.65998122  0.72307989    -0.43100
H3981       H  0.86572978  0.66357155  0.71451143     0.13100
H3982       H  0.87660805  0.67470584  0.77810068     0.09600
H3983       H  0.81988002  0.63025932  0.77975290     0.10700
H3984       H  0.79480998  0.70258863  0.77578133     0.16500
C3985       C  0.87731999  0.95651988  0.10065459    -0.01700
C3986       C  0.85858096  0.94530339  0.08694014     0.06900
C3987       C  0.84023581  0.95453629  0.08380018    -0.07700
C3988       C  0.84046743  0.97500910  0.09397136     0.04300
C3989       C  0.85925283  0.98638290  0.10781634    -0.14900
C3990       C  0.87768278  0.97709038  0.11088162    -0.08300
C3991       C  0.85687466  0.92290164  0.07626281     0.05200
C3992       C  0.83411269  0.89680143  0.07823849    -0.09400
C3993       C  0.83307826  0.87429966  0.07006915     0.00200
C3994       C  0.85532687  0.87785054  0.05981629     0.00100
C3995       C  0.87700248  0.90440115  0.05664970    -0.12900
C3996       C  0.87787066  0.92693301  0.06477382     0.00600
C3997       C  0.80899982  0.84785582  0.07252422     0.39900
C3998       C  0.90061281  0.95391710  0.06141062     0.36500
C3999       C  0.89581312  0.94668470  0.10471934     0.36200
C4000       C  0.82213501  0.48211834  0.09230272     0.37000
N4001       N  0.78961832  0.82675819  0.07451038    -0.43800
N4002       N  0.91874838  0.97560030  0.05871568    -0.44300
N4003       N  0.80667278  0.48910159  0.08880278    -0.41600
N4004       N  0.91056566  0.93870140  0.10794249    -0.43100
H4005       H  0.89221406  0.98573130  0.12136892     0.13100
H4006       H  0.82585070  0.94585045  0.07322824     0.09600
H4007       H  0.81755368  0.89389617  0.08665468     0.10700
H4008       H  0.89392156  0.90743515  0.04855238     0.16500
C4009       C  0.84460323  0.65946265  0.10831226    -0.01700
C4010       C  0.83324988  0.65416603  0.09159597     0.06900
C4011       C  0.82172274  0.62779436  0.08480254    -0.07700
C4012       C  0.82178564  0.60677190  0.09426943     0.04300
C4013       C  0.83291862  0.61187981  0.11110141    -0.14900
C4014       C  0.84391741  0.63819598  0.11806620    -0.08300
C4015       C  0.83324425  0.67587105  0.08090691     0.05200
C4016       C  0.85094006  0.68635437  0.06671443    -0.09400
C4017       C  0.85187115  0.70738027  0.05654425     0.00200
C4018       C  0.83498629  0.71844823  0.06075256     0.00100
C4019       C  0.81654771  0.70694371  0.07463700    -0.12900
C4020       C  0.81539248  0.68573174  0.08454282     0.00600
C4021       C  0.87059490  0.71725858  0.04214821     0.39900
C4022       C  0.79527320  0.67391994  0.09812627     0.36500
C4023       C  0.85860678  0.68686153  0.11518819     0.36200
C4024       C  0.81095827  0.58031833  0.08619713     0.37000
N4025       N  0.88549153  0.72487801  0.03054655    -0.43800
N4026       N  0.77898353  0.66427825  0.10889971    -0.44300
N4027       N  0.80261312  0.55927427  0.07959131    -0.41600
N4028       N  0.87013310  0.70888875  0.12058708    -0.43100
H4029       H  0.85343926  0.64250543  0.13069074     0.13100
H4030       H  0.81309835  0.62377696  0.07191302     0.09600
H4031       H  0.86425543  0.67824602  0.06370337     0.10700
H4032       H  0.80288360  0.71453935  0.07786144     0.16500
C4033       C  0.92366903  0.82898592  0.11680621    -0.01700
C4034       C  0.95093718  0.83610232  0.11352736     0.06900
C4035       C  0.95984095  0.83833655  0.09641339    -0.07700
C4036       C  0.94203253  0.83360559  0.08259464     0.04300
C4037       C  0.91447864  0.82581446  0.08581130    -0.14900
C4038       C  0.90559438  0.82347642  0.10300772    -0.08300
C4039       C  0.97067682  0.84170137  0.12773916     0.05200
C4040       C  0.97341173  0.82019697  0.13454909    -0.09400
C4041       C  0.49455422  0.82594008  0.14714415     0.00200
C4042       C  0.51034304  0.85259108  0.15419018     0.00100
C4043       C  0.00607333  0.87300346  0.14734006    -0.12900
C4044       C  0.98697201  0.86822284  0.13434948     0.00600
C4045       C  0.49635393  0.80282620  0.15348882     0.39900
C4046       C  0.98414103  0.89077652  0.12810488     0.36500
C4047       C  0.91408133  0.82794339  0.13420681     0.36200
C4048       C  0.95249399  0.83638323  0.06527468     0.37000
N4049       N  0.49764448  0.78422798  0.15858417    -0.43800
N4050       N  0.98169664  0.90877085  0.12314089    -0.44300
N4051       N  0.96112441  0.83884102  0.05143964    -0.41600
N4052       N  0.90653548  0.82738957  0.14816221    -0.43100
H4053       H  0.88463761  0.81797706  0.10566262     0.13100
H4054       H  0.98087587  0.84398820  0.09385727     0.09600
H4055       H  0.46393269  0.80078569  0.12849833     0.10700
H4056       H  0.01847564  0.89364705  0.15215647     0.16500
C4057       C  0.50057593  0.72902072  0.18858865    -0.01700
C4058       C  0.97043611  0.71597035  0.18936836     0.06900
C4059       C  0.95952137  0.73102891  0.19691393    -0.07700
C4060       C  0.97660041  0.75793003  0.20255349     0.04300
C4061       C  0.50658356  0.77122076  0.20134054    -0.14900
C4062       C  0.51745942  0.75567073  0.19438255    -0.08300
C4063       C  0.95197057  0.68871649  0.18187405     0.05200
C4064       C  0.95176843  0.66560123  0.18876375    -0.09400
C4065       C  0.93585516  0.63977376  0.18130711     0.00200
C4066       C  0.91998119  0.63693932  0.16659003     0.00100
C4067       C  0.92007969  0.66011084  0.15984295    -0.12900
C4068       C  0.93584112  0.68581919  0.16732961     0.00600
C4069       C  0.93504675  0.61643067  0.18955166     0.39900
C4070       C  0.93549020  0.70896619  0.15964443     0.36500
C4071       C  0.51291702  0.71497586  0.18026499     0.36200
C4072       C  0.96413071  0.77326626  0.20866375     0.37000
N4073       N  0.93423098  0.59768206  0.19621909    -0.43800
N4074       N  0.93505209  0.72742675  0.15348878    -0.44300
N4075       N  0.95405188  0.78556309  0.21341225    -0.41600
N4076       N  0.52270985  0.70370667  0.17351145    -0.43100
H4077       H  0.53935572  0.76468564  0.19288875     0.13100
H4078       H  0.93754739  0.72204603  0.19781240     0.09600
H4079       H  0.96401864  0.66778700  0.20003486     0.10700
H4080       H  0.90777104  0.65812998  0.14863355     0.16500
C4081       C  0.66374621  0.93963146  0.15063258    -0.01700
C4082       C  0.68409722  0.96106737  0.16040090     0.06900
C4083       C  0.67734589  0.96747278  0.17648064    -0.07700
C4084       C  0.65094323  0.95200469  0.18328511     0.04300
C4085       C  0.63072657  0.92958761  0.17384261    -0.14900
C4086       C  0.63739631  0.92421380  0.15734776    -0.08300
C4087       C  0.71282374  0.97611161  0.15443227     0.05200
C4088       C  0.71904175  0.48604441  0.13906726    -0.09400
C4089       C  0.74640709  0.50008213  0.13380036     0.00200
C4090       C  0.76729513  0.50624936  0.14598504     0.00100
C4091       C  0.76037690  0.98886802  0.15762185    -0.12900
C4092       C  0.73332781  0.97360288  0.16311193     0.00600
C4093       C  0.75213341  0.50767401  0.11586285     0.39900
C4094       C  0.72720119  0.95528103  0.17756111     0.36500
C4095       C  0.66983494  0.93209896  0.13411903     0.36200
C4096       C  0.64591938  0.95862369  0.20037833     0.37000
N4097       N  0.75640327  0.51329908  0.10139646    -0.43800
N4098       N  0.72271939  0.94063031  0.18911269    -0.44300
N4099       N  0.64219199  0.96410189  0.21410874    -0.41600
N4100       N  0.67481922  0.92610182  0.12090782    -0.43100
H4101       H  0.62217424  0.90724181  0.14984098     0.13100
H4102       H  0.69303960  0.98412631  0.18396656     0.09600
H4103       H  0.70315925  0.48200240  0.12976708     0.10700
H4104       H  0.77607255  0.98723179  0.16466184     0.16500
C4105       C  0.61529255  0.93657505  0.27752549    -0.01700
C4106       C  0.61712751  0.96238732  0.27723152     0.06900
C4107       C  0.60860579  0.97040999  0.26248902    -0.07700
C4108       C  0.59719550  0.95267418  0.24841005     0.04300
C4109       C  0.59401553  0.92607045  0.24897497    -0.14900
C4110       C  0.60380589  0.91872652  0.26354477    -0.08300
C4111       C  0.62775278  0.98119763  0.29225045     0.05200
C4112       C  0.65331114  0.00494268  0.29103789    -0.09400
C4113       C  0.67028168  0.50874209  0.30878463     0.00200
C4114       C  0.65509982  0.51649518  0.31959592     0.00100
C4115       C  0.62743524  0.50659838  0.31572572    -0.12900
C4116       C  0.61291333  0.97544143  0.30778863     0.00600
C4117       C  0.69875562  0.51802766  0.31183291     0.39900
C4118       C  0.58616445  0.95155289  0.30947134     0.36500
C4119       C  0.62522840  0.92805107  0.29204476     0.36200
C4120       C  0.58934614  0.96269807  0.23359669     0.37000
N4121       N  0.72160211  0.52547886  0.31419443    -0.43800
N4122       N  0.56476760  0.93234707  0.31075245    -0.44300
N4123       N  0.58325196  0.97092785  0.22173565    -0.41600
N4124       N  0.63324906  0.92130883  0.30369408    -0.43100
H4125       H  0.60206425  0.89874176  0.26423083     0.13100
H4126       H  0.61054250  0.99050433  0.26209329     0.09600
H4127       H  0.66468450  0.00947537  0.27904391     0.10700
H4128       H  0.61552791  0.51254183  0.32371734     0.16500
C4129       C  0.83172602  0.83795871  0.38325917    -0.01700
C4130       C  0.85906229  0.84403467  0.38405423     0.06900
C4131       C  0.87672785  0.85866056  0.37046842    -0.07700
C4132       C  0.86758818  0.86687449  0.35605059     0.04300
C4133       C  0.83983621  0.86015740  0.35484857    -0.14900
C4134       C  0.82232015  0.84584240  0.36876027    -0.08300
C4135       C  0.87003847  0.83593125  0.39904326     0.05200
C4136       C  0.86653239  0.80953450  0.39976942    -0.09400
C4137       C  0.87862824  0.80198119  0.41292557     0.00200
C4138       C  0.89490802  0.82123217  0.42573180     0.00100
C4139       C  0.89743249  0.84737263  0.42519320    -0.12900
C4140       C  0.88527140  0.85476012  0.41206344     0.00600
C4141       C  0.87371634  0.77429860  0.41290630     0.39900
C4142       C  0.88884801  0.88192468  0.41208395     0.36500
C4143       C  0.81315521  0.82410527  0.39734720     0.36200
C4144       C  0.88749226  0.88239392  0.34288952     0.37000
N4145       N  0.86967888  0.75207929  0.41287722    -0.43800
N4146       N  0.89159521  0.90365302  0.41206234    -0.44300
N4147       N  0.90355690  0.89490816  0.33241516    -0.41600
N4148       N  0.79837290  0.81317171  0.40872245    -0.43100
H4149       H  0.80110183  0.84060585  0.36833166     0.13100
H4150       H  0.89790810  0.86375067  0.37117009     0.09600
H4151       H  0.85461977  0.79488194  0.38983259     0.10700
H4152       H  0.90950471  0.86247535  0.43486036     0.16500
C4153       C  0.84955191  0.97319009  0.24798272    -0.01700
C4154       C  0.83971950  0.96399450  0.23120413     0.06900
C4155       C  0.82428664  0.93581258  0.22813087    -0.07700
C4156       C  0.81883143  0.91678163  0.24139973     0.04300
C4157       C  0.82934885  0.92586067  0.25820644    -0.14900
C4158       C  0.84432596  0.95422925  0.26127654    -0.08300
C4159       C  0.84637887  0.98334662  0.21648020     0.05200
C4160       C  0.86686193  0.98679144  0.20488233    -0.09400
C4161       C  0.87794676  0.51009915  0.19476159     0.00200
C4162       C  0.86154214  0.52184318  0.19083158     0.00100
C4163       C  0.84014000  0.51689785  0.20224597    -0.12900
C4164       C  0.83265544  0.99810682  0.21378111     0.00600
C4165       C  0.90120211  0.51532533  0.18431326     0.39900
C4166       C  0.81128600  0.99507507  0.22532380     0.36500
C4167       C  0.86560311  0.00202076  0.25171151     0.36200
C4168       C  0.80165007  0.88814582  0.23743109     0.37000
N4169       N  0.91984901  0.51949666  0.17594988    -0.43800
N4170       N  0.79416258  0.99265759  0.23458457    -0.44300
N4171       N  0.78776183  0.86521865  0.23424034    -0.41600
N4172       N  0.86665216  0.52412232  0.26164068    -0.43100
H4173       H  0.85246310  0.96169325  0.27402979     0.13100
H4174       H  0.81645387  0.92866185  0.21527121     0.09600
H4175       H  0.87766883  0.97570005  0.20702845     0.10700
H4176       H  0.82726780  0.52559860  0.19948376     0.16500
C4177       C  0.92058934  0.88411757  0.26420320    -0.01700
C4178       C  0.91652132  0.85866707  0.25841062     0.06900
C4179       C  0.89389198  0.83457858  0.26447981    -0.07700
C4180       C  0.87447665  0.83553082  0.27516351     0.04300
C4181       C  0.87692070  0.86107725  0.27933169    -0.14900
C4182       C  0.90064395  0.88514842  0.27429396    -0.08300
C4183       C  0.93661045  0.85661106  0.24712008     0.05200
C4184       C  0.94799134  0.84104256  0.25290239    -0.09400
C4185       C  0.96880667  0.84044077  0.24367585     0.00200
C4186       C  0.97968025  0.85684066  0.22867137     0.00100
C4187       C  0.96659389  0.87044595  0.22202160    -0.12900
C4188       C  0.94478391  0.86995194  0.23095990     0.00600
C4189       C  0.97845765  0.82268853  0.25002051     0.39900
C4190       C  0.93092695  0.88296660  0.22328210     0.36500
C4191       C  0.94529927  0.90940491  0.26033578     0.36200
C4192       C  0.85272166  0.80999489  0.28189154     0.37000
N4193       N  0.98605884  0.80835003  0.25504199    -0.43800
N4194       N  0.91965096  0.89323429  0.21714483    -0.44300
N4195       N  0.83550510  0.78954289  0.28742155    -0.41600
N4196       N  0.96511984  0.92967025  0.25729065    -0.43100
H4197       H  0.90340649  0.90492979  0.27786509     0.13100
H4198       H  0.89134574  0.81491229  0.26080935     0.09600
H4199       H  0.94099706  0.82975116  0.26492680     0.10700
H4200       H  0.97390703  0.88217681  0.21018176     0.16500
C4201       C  0.63325507  0.82003318  0.24627572    -0.01700
C4202       C  0.66083852  0.84069196  0.24528427     0.06900
C4203       C  0.66868932  0.86187410  0.23313360    -0.07700
C4204       C  0.64928619  0.86327749  0.22255404     0.04300
C4205       C  0.62148507  0.84322823  0.22411898    -0.14900
C4206       C  0.61399687  0.82142742  0.23575133    -0.08300
C4207       C  0.68162916  0.84044093  0.25686352     0.05200
C4208       C  0.68668044  0.81853977  0.25586177    -0.09400
C4209       C  0.70653375  0.81782964  0.26624121     0.00200
C4210       C  0.72162194  0.83922807  0.27792594     0.00100
C4211       C  0.71621270  0.86082653  0.27926047    -0.12900
C4212       C  0.69631287  0.86155762  0.26888493     0.00600
C4213       C  0.71152770  0.79526132  0.26444004     0.39900
C4214       C  0.69132217  0.88412534  0.27079153     0.36500
C4215       C  0.62394353  0.79783014  0.25853745     0.36200
C4216       C  0.65816239  0.88610839  0.21088935     0.37000
N4217       N  0.71543568  0.77710778  0.26301510    -0.43800
N4218       N  0.68731936  0.90220758  0.27232202    -0.44300
N4219       N  0.66492607  0.90427030  0.20145280    -0.41600
N4220       N  0.61642487  0.77999126  0.26832016    -0.43100
H4221       H  0.59273404  0.80569832  0.23703955     0.13100
H4222       H  0.68999317  0.87761297  0.23214053     0.09600
H4223       H  0.67542830  0.80221963  0.24668899     0.10700
H4224       H  0.72821472  0.87760740  0.28799478     0.16500
C4225       C  0.74994933  0.73621774  0.33419153    -0.01700
C4226       C  0.74330003  0.71558917  0.32184791     0.06900
C4227       C  0.74725725  0.72272597  0.30425643    -0.07700
C4228       C  0.75737333  0.74996916  0.29889713     0.04300
C4229       C  0.76325887  0.77056534  0.31131419    -0.14900
C4230       C  0.75949876  0.76308415  0.32889939    -0.08300
C4231       C  0.73239412  0.68668902  0.32737380     0.05200
C4232       C  0.70832230  0.67389577  0.33724653    -0.09400
C4233       C  0.69909210  0.64807281  0.34462540     0.00200
C4234       C  0.71370484  0.63420594  0.34180823     0.00100
C4235       C  0.73744833  0.64674825  0.33159207    -0.12900
C4236       C  0.74685398  0.67273685  0.32440097     0.00600
C4237       C  0.67578247  0.63727428  0.35602633     0.39900
C4238       C  0.77201320  0.68512893  0.31468347     0.36500
C4239       C  0.74792890  0.73055439  0.35249440     0.36200
C4240       C  0.76195054  0.75605309  0.28070944     0.37000
N4241       N  0.65723018  0.62881552  0.36526103    -0.43800
N4242       N  0.79216275  0.69505355  0.30687914    -0.44300
N4243       N  0.76576438  0.76079695  0.26611231    -0.41600
N4244       N  0.74636869  0.72608634  0.36715266    -0.43100
H4245       H  0.76414835  0.77833000  0.33879753     0.13100
H4246       H  0.74243752  0.70696180  0.29469977     0.09600
H4247       H  0.69726453  0.68462561  0.33972682     0.10700
H4248       H  0.74886872  0.63632536  0.32935650     0.16500
C4249       C  0.78480668  0.96519036  0.33638357    -0.01700
C4250       C  0.76500831  0.95403558  0.34963668     0.06900
C4251       C  0.75711102  0.92795594  0.35608836    -0.07700
C4252       C  0.76749906  0.91234390  0.34888797     0.04300
C4253       C  0.78620110  0.92289167  0.33501700    -0.14900
C4254       C  0.79542479  0.94963055  0.32925112    -0.08300
C4255       C  0.75025734  0.96802702  0.35561748     0.05200
C4256       C  0.73207239  0.96978495  0.34420373    -0.09400
C4257       C  0.71839023  0.98368591  0.34877422     0.00200
C4258       C  0.72983395  0.49984770  0.36728387     0.00100
C4259       C  0.75392394  0.50493050  0.37567282    -0.12900
C4260       C  0.76682536  0.48994345  0.37144917     0.00600
C4261       C  0.69918237  0.98372524  0.33652523     0.39900
C4262       C  0.79138831  0.49570155  0.38051124     0.36500
C4263       C  0.79390384  0.99224644  0.32962966     0.36200
C4264       C  0.75843828  0.88535344  0.35579516     0.37000
N4265       N  0.68375368  0.98349163  0.32664928    -0.43800
N4266       N  0.81113481  0.50042921  0.38775707    -0.44300
N4267       N  0.75130508  0.86374602  0.36129665    -0.41600
N4268       N  0.80115657  0.01393679  0.32423445    -0.43100
H4269       H  0.80981173  0.95780479  0.31862300     0.13100
H4270       H  0.74200132  0.91938398  0.36630166     0.09600
H4271       H  0.72869319  0.96034040  0.33159203     0.10700
H4272       H  0.76317074  0.52124030  0.38508443     0.16500
C4273       C  0.88354165  0.51615623  0.80573553    -0.01700
C4274       C  0.86781275  0.51883903  0.79258128     0.06900
C4275       C  0.83933391  0.50192533  0.79306304    -0.07700
C4276       C  0.82710289  0.97672210  0.80392868     0.04300
C4277       C  0.84278318  0.97913274  0.81879288    -0.14900
C4278       C  0.87060660  0.99941882  0.81875925    -0.08300
C4279       C  0.88069352  0.53860537  0.77801078     0.05200
C4280       C  0.87660388  0.52863150  0.76107067    -0.09400
C4281       C  0.88918507  0.54621127  0.74700361     0.00200
C4282       C  0.90671050  0.57462090  0.74975344     0.00100
C4283       C  0.91008699  0.58460478  0.76673561    -0.12900
C4284       C  0.89701570  0.56704595  0.78071812     0.00600
C4285       C  0.88394369  0.53423121  0.73000450     0.39900
C4286       C  0.90009565  0.57883567  0.79766100     0.36500
C4287       C  0.91298420  0.53187237  0.80550846     0.36200
C4288       C  0.79889381  0.95566023  0.80230304     0.37000
N4289       N  0.87962033  0.52463271  0.71637610    -0.43800
N4290       N  0.90261049  0.58830710  0.81123329    -0.44300
N4291       N  0.77631591  0.93870629  0.80089039    -0.41600
N4292       N  0.93656755  0.54460604  0.80540425    -0.43100
H4293       H  0.88335339  0.00138735  0.82972832     0.13100
H4294       H  0.82709578  0.50368299  0.78291845     0.09600
H4295       H  0.86377254  0.50685794  0.75884527     0.10700
H4296       H  0.92274655  0.60634350  0.76913802     0.16500
C4297       C  0.73262450  0.51087913  0.87062246    -0.01700
C4298       C  0.74172705  0.52842913  0.85620108     0.06900
C4299       C  0.75767159  0.02446751  0.84270162    -0.07700
C4300       C  0.77202261  0.01118623  0.84732505     0.04300
C4301       C  0.76425285  0.99431760  0.86217008    -0.14900
C4302       C  0.74551112  0.49598999  0.87497131    -0.08300
C4303       C  0.72895147  0.54459041  0.85094591     0.05200
C4304       C  0.74154375  0.57198498  0.85586241    -0.09400
C4305       C  0.73248871  0.58921675  0.84949655     0.00200
C4306       C  0.71023664  0.57896266  0.83774405     0.00100
C4307       C  0.69714360  0.55109454  0.83330331    -0.12900
C4308       C  0.70630481  0.53392768  0.83982315     0.00600
C4309       C  0.74744328  0.61749174  0.85482294     0.39900
C4310       C  0.70380183  0.00856132  0.82030073     0.36500
C4311       C  0.70993662  0.50761304  0.88093053     0.36200
C4312       C  0.79496615  0.01567741  0.83676367     0.37000
N4313       N  0.75952439  0.64010449  0.85914868    -0.43800
N4314       N  0.70044481  0.99028788  0.81182469    -0.44300
N4315       N  0.81337983  0.01940060  0.82830353    -0.41600
N4316       N  0.69173377  0.50498451  0.88919249    -0.43100
H4317       H  0.73788830  0.48183663  0.88575408     0.13100
H4318       H  0.76385138  0.03746525  0.83134458     0.09600
H4319       H  0.75910967  0.58012869  0.86436277     0.10700
H4320       H  0.68004153  0.54275488  0.82444606     0.16500
C4321       C  0.75140049  0.81502763  0.84034317    -0.01700
C4322       C  0.76402085  0.81272638  0.82526239     0.06900
C4323       C  0.78734635  0.83587419  0.81881512    -0.07700
C4324       C  0.79832827  0.86107476  0.82724783     0.04300
C4325       C  0.78575538  0.86331502  0.84240866    -0.14900
C4326       C  0.76246574  0.84010809  0.84882010    -0.08300
C4327       C  0.75516665  0.78577713  0.81726103     0.05200
C4328       C  0.72878429  0.77035141  0.81033672    -0.09400
C4329       C  0.71909919  0.74344624  0.80463101     0.00200
C4330       C  0.73628313  0.73201315  0.80555683     0.00100
C4331       C  0.76313141  0.74821885  0.81156788    -0.12900
C4332       C  0.77245472  0.77456124  0.81767102     0.00600
C4333       C  0.69102840  0.72749935  0.79920101     0.39900
C4334       C  0.79909100  0.78880045  0.82560750     0.36500
C4335       C  0.72735340  0.79193077  0.84754211     0.36200
C4336       C  0.82178403  0.88437711  0.81970956     0.37000
N4337       N  0.66848600  0.71467007  0.79493420    -0.43800
N4338       N  0.82031107  0.80018285  0.83209435    -0.44300
N4339       N  0.84056842  0.90304485  0.81364936    -0.41600
N4340       N  0.70794765  0.77354927  0.85327683    -0.43100
H4341       H  0.75280206  0.84161459  0.86052765     0.13100
H4342       H  0.79712624  0.83411258  0.80723404     0.09600
H4343       H  0.71541531  0.77894559  0.81007799     0.10700
H4344       H  0.77660203  0.73975298  0.81235328     0.16500
C4345       C  0.83555627  0.90438991  0.94821353    -0.01700
C4346       C  0.83501790  0.87934980  0.94611945     0.06900
C4347       C  0.83063701  0.86775937  0.92963369    -0.07700
C4348       C  0.82728359  0.88088894  0.91523001     0.04300
C4349       C  0.82879905  0.90662152  0.91711511    -0.14900
C4350       C  0.83259690  0.91779843  0.93382224    -0.08300
C4351       C  0.83977185  0.86526527  0.96084603     0.05200
C4352       C  0.81931831  0.85179446  0.97330867    -0.09400
C4353       C  0.82314424  0.83812460  0.98723459     0.00200
C4354       C  0.84782850  0.83764415  0.98880868     0.00100
C4355       C  0.86843450  0.85158193  0.97644838    -0.12900
C4356       C  0.86455654  0.86522459  0.96255010     0.00600
C4357       C  0.80206250  0.82623546  0.00022789     0.39900
C4358       C  0.88649076  0.87957977  0.95033934     0.36500
C4359       C  0.83970972  0.91698528  0.96496919     0.36200
C4360       C  0.82170159  0.86698855  0.89884444     0.37000
N4361       N  0.78518075  0.81710858  0.01066912    -0.43800
N4362       N  0.90401359  0.89119806  0.94052808    -0.44300
N4363       N  0.81710224  0.85573013  0.88574878    -0.41600
N4364       N  0.84297962  0.92704510  0.97840687    -0.43100
H4365       H  0.83354559  0.93728599  0.93570413     0.13100
H4366       H  0.82982012  0.84827296  0.92803110     0.09600
H4367       H  0.80039108  0.85213386  0.97219990     0.10700
H4368       H  0.88756483  0.85166995  0.97757892     0.16500
C4369       C  0.48953501  0.62658227  0.04048487    -0.01700
C4370       C  0.97293895  0.63608954  0.04855001     0.06900
C4371       C  0.97658987  0.66142177  0.04310377    -0.07700
C4372       C  0.99413301  0.67587865  0.02930293     0.04300
C4373       C  0.50988735  0.66607064  0.02084856    -0.14900
C4374       C  0.50635898  0.64071341  0.02642081    -0.08300
C4375       C  0.95437378  0.62154806  0.06341844     0.05200
C4376       C  0.96101858  0.63338907  0.07988881    -0.09400
C4377       C  0.94459950  0.62002457  0.09431877     0.00200
C4378       C  0.92089006  0.59396481  0.09246174     0.00100
C4379       C  0.91405323  0.58252831  0.07581193    -0.12900
C4380       C  0.93032488  0.59606522  0.06142128     0.00600
C4381       C  0.95229732  0.63403021  0.11069017     0.39900
C4382       C  0.92150045  0.58370118  0.04464001     0.36500
C4383       C  0.48794151  0.60135634  0.04593694     0.36200
C4384       C  0.99666058  0.70179728  0.02460769     0.37000
N4385       N  0.95842424  0.64533267  0.12378648    -0.43800
N4386       N  0.91434862  0.57378028  0.03120076    -0.44300
N4387       N  0.99862096  0.72258118  0.02093868    -0.41600
N4388       N  0.48666895  0.58114355  0.05030435    -0.43100
H4389       H  0.51699193  0.63180012  0.01986493     0.13100
H4390       H  0.96558292  0.66993417  0.04967568     0.09600
H4391       H  0.97925409  0.65318742  0.08148791     0.10700
H4392       H  0.89580063  0.56284184  0.07393566     0.16500
C4393       C  0.60678302  0.64843406  0.91067053    -0.01700
C4394       C  0.62304605  0.66825940  0.89819124     0.06900
C4395       C  0.62688441  0.69477161  0.89989031    -0.07700
C4396       C  0.61489072  0.70161821  0.91347907     0.04300
C4397       C  0.59756710  0.68142953  0.92553738    -0.14900
C4398       C  0.59416251  0.65502894  0.92398384    -0.08300
C4399       C  0.63605661  0.66177651  0.88330771     0.05200
C4400       C  0.61990944  0.63945856  0.87247806    -0.09400
C4401       C  0.63128016  0.63262155  0.85850511     0.00200
C4402       C  0.65944235  0.64891646  0.85455815     0.00100
C4403       C  0.67548359  0.67140796  0.86534263    -0.12900
C4404       C  0.66426107  0.67761154  0.87965102     0.00600
C4405       C  0.61334066  0.60877486  0.84850534     0.39900
C4406       C  0.68245566  0.69966595  0.89082361     0.36500
C4407       C  0.60321076  0.62126721  0.91039199     0.36200
C4408       C  0.62160400  0.72979446  0.91495515     0.37000
N4409       N  0.59891459  0.58948251  0.84063924    -0.43800
N4410       N  0.69702463  0.71726021  0.89983108    -0.44300
N4411       N  0.62727813  0.75245655  0.91616842    -0.41600
N4412       N  0.60036916  0.59950210  0.91016635    -0.43100
H4413       H  0.58134260  0.63924375  0.93312840     0.13100
H4414       H  0.63935976  0.71030655  0.89051530     0.09600
H4415       H  0.59820677  0.62722298  0.87495146     0.10700
H4416       H  0.69715306  0.68396937  0.86285690     0.16500
C4417       C  0.89853860  0.56033114  0.90991822    -0.01700
C4418       C  0.92092992  0.55877843  0.91647132     0.06900
C4419       C  0.92303276  0.53552473  0.91327667    -0.07700
C4420       C  0.90313404  0.51374296  0.90368776     0.04300
C4421       C  0.88066077  0.51527964  0.89691501    -0.14900
C4422       C  0.87886035  0.53884364  0.90009422    -0.08300
C4423       C  0.94315335  0.58178807  0.92593484     0.05200
C4424       C  0.94804767  0.57844046  0.94327309    -0.09400
C4425       C  0.96958957  0.59976018  0.95237239     0.00200
C4426       C  0.98640005  0.62508946  0.94403654     0.00100
C4427       C  0.98115982  0.62802296  0.92659906    -0.12900
C4428       C  0.96019001  0.60666284  0.91751974     0.00600
C4429       C  0.97411045  0.59473413  0.96999000     0.39900
C4430       C  0.95738530  0.61035320  0.89932399     0.36500
C4431       C  0.89489005  0.58339422  0.91352796     0.36200
C4432       C  0.90590641  0.48980057  0.90178994     0.37000
N4433       N  0.97775287  0.59054015  0.98407790    -0.43800
N4434       N  0.95521767  0.61323684  0.88474036    -0.44300
N4435       N  0.92131307  0.98884473  0.88117895    -0.41600
N4436       N  0.89186918  0.60181086  0.91641385    -0.43100
H4437       H  0.86165957  0.54029227  0.89523307     0.13100
H4438       H  0.94031738  0.53440798  0.91834203     0.09600
H4439       H  0.93511949  0.55902407  0.94964331     0.10700
H4440       H  0.49003279  0.64784734  0.92066393     0.16500
C4441       C  0.69934787  0.87582447  0.92542573    -0.01700
C4442       C  0.68147016  0.84976490  0.91867530     0.06900
C4443       C  0.68420911  0.84413141  0.90137722    -0.07700
C4444       C  0.70520132  0.86379118  0.89098009     0.04300
C4445       C  0.72378741  0.88956787  0.89796841    -0.14900
C4446       C  0.72032703  0.89534913  0.91512405    -0.08300
C4447       C  0.65941952  0.82834023  0.92937959     0.05200
C4448       C  0.63248547  0.82126640  0.92584371    -0.09400
C4449       C  0.61086020  0.80089567  0.93534876     0.00200
C4450       C  0.61607098  0.78706827  0.94883993     0.00100
C4451       C  0.64325650  0.79481006  0.95266218    -0.12900
C4452       C  0.66485473  0.81506480  0.94294772     0.00600
C4453       C  0.58360436  0.79469933  0.93079820     0.39900
C4454       C  0.69229316  0.82096558  0.94654086     0.36500
C4455       C  0.69646369  0.88301182  0.94286002     0.36200
C4456       C  0.70795919  0.85648587  0.87356834     0.37000
N4457       N  0.56181021  0.78970784  0.92703022    -0.43800
N4458       N  0.71428143  0.82561056  0.94934728    -0.44300
N4459       N  0.70992691  0.85048598  0.85959673    -0.41600
N4460       N  0.69412001  0.88877729  0.95682220    -0.43100
H4461       H  0.73436530  0.91515975  0.92059911     0.13100
H4462       H  0.67024772  0.82413491  0.89612263     0.09600
H4463       H  0.62834711  0.83166433  0.91548521     0.10700
H4464       H  0.64760929  0.78414861  0.96272825     0.16500
C4465       C  0.95334225  0.77612591  0.01173550    -0.01700
C4466       C  0.95040001  0.76822197  0.99426296     0.06900
C4467       C  0.93205038  0.77140847  0.98383999    -0.07700
C4468       C  0.91610538  0.78169790  0.99062008     0.04300
C4469       C  0.91823454  0.78882368  0.00830440    -0.14900
C4470       C  0.93725236  0.78629872  0.01862403    -0.08300
C4471       C  0.96718165  0.75783334  0.98625710     0.05200
C4472       C  0.95766697  0.72961194  0.98612481    -0.09400
C4473       C  0.97358750  0.71937563  0.97898645     0.00200
C4474       C  0.49821469  0.73730697  0.97153304     0.00100
C4475       C  0.50677536  0.76531787  0.97100431    -0.12900
C4476       C  0.49066506  0.77525314  0.97798716     0.00600
C4477       C  0.96401076  0.69045957  0.98025503     0.39900
C4478       C  0.50077876  0.80433511  0.97770030     0.36500
C4479       C  0.97261438  0.77388590  0.02281880     0.36200
C4480       C  0.89818487  0.78523392  0.97897340     0.37000
N4481       N  0.95637352  0.66729134  0.98129995    -0.43800
N4482       N  0.50879437  0.82762264  0.97752892    -0.44300
N4483       N  0.88385879  0.78807245  0.96962118    -0.41600
N4484       N  0.98808029  0.77225477  0.03178299    -0.43100
H4485       H  0.93891817  0.79139994  0.03221118     0.13100
H4486       H  0.93030862  0.76594374  0.97030097     0.09600
H4487       H  0.93813817  0.71569621  0.99200161     0.10700
H4488       H  0.52672627  0.77963911  0.96578410     0.16500
C4489       C  0.71872606  0.75609250  0.04067750    -0.01700
C4490       C  0.70809050  0.74314567  0.02471497     0.06900
C4491       C  0.72532269  0.74045470  0.01291567    -0.07700
C4492       C  0.75260997  0.74979691  0.01684112     0.04300
C4493       C  0.76320518  0.76193250  0.03309331    -0.14900
C4494       C  0.74609509  0.76524503  0.04477661    -0.08300
C4495       C  0.67958354  0.73355710  0.01933001     0.05200
C4496       C  0.67106896  0.75277665  0.01718379    -0.09400
C4497       C  0.64579006  0.74532030  0.00976580     0.00200
C4498       C  0.62885997  0.71822737  0.00381081     0.00100
C4499       C  0.63705506  0.69881941  0.00647452    -0.12900
C4500       C  0.66196793  0.70615742  0.01443364     0.00600
C4501       C  0.63841404  0.76626438  0.00784246     0.39900
C4502       C  0.66890695  0.68519249  0.01770800     0.36500
C4503       C  0.70191627  0.75990861  0.05309438     0.36200
C4504       C  0.76945549  0.74792477  0.00348855     0.37000
N4505       N  0.63258347  0.78312033  0.00647982    -0.43800
N4506       N  0.67438968  0.66837059  0.02048439    -0.44300
N4507       N  0.78287201  0.74654199  0.99270356    -0.41600
N4508       N  0.68851328  0.76313721  0.06302762    -0.43100
H4509       H  0.75399677  0.77468302  0.05720141     0.13100
H4510       H  0.71746537  0.73143071  0.00036677     0.09600
H4511       H  0.68460702  0.77389947  0.02083429     0.10700
H4512       H  0.62385737  0.67781815  0.00246736     0.16500
loop_ 
_geom_bond_atom_site_label_1 
_geom_bond_atom_site_label_2 
_geom_bond_distance 
_geom_bond_site_symmetry_2 
_ccdc_geom_bond_type 
O1          Cr19   1.987       .  S
O1            C9   1.261       .  A
O2          Cr19   1.978       .  S
O2            C3   1.263   1_556  A
C3            O4   1.272   1_554  A
C3          C989   1.497       .  S
O4          Cr20   2.018       .  S
O5          Cr20   1.995       .  S
O5            C6   1.262       .  A
C6            O7   1.256       .  A
C6         C3298   1.485   1_455  S
O7          Cr21   1.964       .  S
O8          Cr21   2.009       .  S
O8            C9   1.266       .  A
C9         C1090   1.486       .  S
O10         Cr19   1.993       .  S
O10          C18   1.264       .  A
O11         Cr19   1.979       .  S
O11          C12   1.256       .  A
C12          O13   1.262       .  A
C12        C1114   1.478   1_556  S
O13         Cr20   1.993       .  S
O14         Cr20   2.020       .  S
O14          C15   1.272       .  A
C15          O16   1.268       .  A
C15        C1013   1.508       .  S
O16         Cr21   1.996       .  S
O17         Cr21   1.983       .  S
O17          C18   1.259       .  A
C18        C1066   1.474       .  S
Cr19         O22   1.769       .  S
Cr20         O22   1.771       .  S
Cr21         O22   1.768       .  S
O23         Cr41   1.955       .  S
O23          C31   1.253       .  A
O24         Cr41   2.026       .  S
O24          C25   1.272       .  A
C25          O26   1.264       .  A
C25         C893   1.499       .  S
O26         Cr42   1.976       .  S
O27         Cr42   2.011       .  S
O27          C28   1.266       .  A
C28          O29   1.258       .  A
C28        C2165   1.484       .  S
O29         Cr43   1.961       .  S
O30         Cr43   2.022       .  S
O30          C31   1.266       .  A
C31         C917   1.475       .  S
O32         Cr41   2.028       .  S
O32          C40   1.270       .  A
O33         Cr41   1.954       .  S
O33          C34   1.253       .  A
C34          O35   1.265       .  A
C34         C941   1.471       .  S
O35         Cr42   2.012       .  S
O36         Cr42   1.989       .  S
O36          C37   1.265       .  A
C37          O38   1.270       .  A
C37         C965   1.496       .  S
O38         Cr43   2.017       .  S
O39         Cr43   1.940       .  S
O39          C40   1.254       .  A
C40        C1061   1.476       .  S
Cr41         O44   1.763       .  S
Cr42         O44   1.767       .  S
Cr43         O44   1.761       .  S
O45         Cr63   1.953       .  S
O45          C53   1.254       .  A
O46         Cr63   2.025       .  S
O46          C47   1.272       .  A
C47          O48   1.264       .  A
C47         C749   1.501       .  S
O48         Cr64   1.982       .  S
O49         Cr64   2.015       .  S
O49          C50   1.266       .  A
C50          O51   1.252       .  A
C50         C797   1.484       .  S
O51         Cr65   1.956       .  S
O52         Cr65   2.030       .  S
O52          C53   1.268       .  A
C53         C845   1.490       .  S
O54         Cr63   2.029       .  S
O54          C62   1.271       .  A
O55         Cr63   1.958       .  S
O55          C56   1.255       .  A
C56          O57   1.266       .  A
C56         C869   1.481       .  S
O57         Cr64   2.022       .  S
O58         Cr64   1.987       .  S
O58          C59   1.267       .  A
C59          O60   1.273       .  A
C59         C773   1.505       .  S
O60         Cr65   2.029       .  S
O61         Cr65   1.946       .  S
O61          C62   1.254       .  A
C62         C826   1.477       .  S
Cr63         O66   1.765       .  S
Cr64         O66   1.774       .  S
Cr65         O66   1.768       .  S
O67         Cr85   1.996       .  S
O67          C75   1.265       .  A
O68         Cr85   1.983       .  S
O68          C69   1.263       .  A
C69          O70   1.270       .  A
C69         C658   1.498       .  S
O70         Cr86   2.015       .  S
O71         Cr86   1.991       .  S
O71          C72   1.260       .  A
C72          O73   1.256       .  A
C72        C3058   1.475   1_455  S
O73         Cr87   1.971       .  S
O74         Cr87   1.992       .  S
O74          C75   1.264       .  A
C75         C677   1.481       .  S
O76         Cr85   2.004       .  S
O76          C84   1.266       .  A
O77         Cr85   1.991       .  S
O77          C78   1.262       .  A
C78          O79   1.259       .  A
C78         C701   1.488       .  S
O79         Cr86   1.983       .  S
O80         Cr86   2.018       .  S
O80          C81   1.270       .  A
C81          O82   1.265       .  A
C81         C725   1.498       .  S
O82         Cr87   1.980       .  S
O83         Cr87   1.983       .  S
O83          C84   1.261       .  A
C84         C821   1.488       .  S
Cr85         O88   1.766       .  S
Cr86         O88   1.770       .  S
Cr87         O88   1.762       .  S
O89        Cr107   1.957       .  S
O89          C97   1.254       .  A
O90        Cr107   2.030       .  S
O90          C91   1.274       .  A
C91          O92   1.263       .  A
C91         C778   1.499       .  S
O92        Cr108   1.976       .  S
O93        Cr108   2.029       .  S
O93          C94   1.270       .  A
C94          O95   1.253       .  A
C94        C1733   1.477   1_545  S
O95        Cr109   1.949       .  S
O96        Cr109   2.021       .  S
O96          C97   1.266       .  A
C97         C706   1.476       .  S
O98        Cr107   2.033       .  S
O98         C106   1.271       .  A
O99        Cr107   1.958       .  S
O99         C100   1.254       .  A
C100        O101   1.268       .  A
C100        C682   1.476       .  S
O101       Cr108   2.025       .  S
O102       Cr108   1.989       .  S
O102        C103   1.264       .  A
C103        O104   1.270       .  A
C103        C994   1.488       .  S
O104       Cr109   2.018       .  S
O105       Cr109   1.931       .  S
O105        C106   1.251       .  A
C106        C629   1.464       .  S
Cr107       O110   1.759       .  S
Cr108       O110   1.767       .  S
Cr109       O110   1.760       .  S
O111       Cr129   1.983       .  S
O111        C119   1.256       .  A
O112       Cr129   1.981       .  S
O112        C113   1.265       .  A
C113        O114   1.274       .  A
C113        C970   1.490   1_554  S
O114       Cr130   2.025       .  S
O115       Cr130   1.987       .  S
O115        C116   1.261       .  A
C116        O117   1.261       .  A
C116        C610   1.482       .  S
O117       Cr131   1.983       .  S
O118       Cr131   2.000       .  S
O118        C119   1.262       .  A
C119       C1109   1.483       .  S
O120       Cr129   1.987       .  S
O120        C128   1.266       .  A
O121       Cr129   1.988       .  S
O121        C122   1.256       .  A
C122        O123   1.259       .  A
C122       C1085   1.482       .  S
O123       Cr130   1.998       .  S
O124       Cr130   2.009       .  S
O124        C125   1.268       .  A
C125        O126   1.264       .  A
C125        C653   1.491       .  S
O126       Cr131   1.984       .  S
O127       Cr131   2.001       .  S
O127        C128   1.267       .  A
C128        C634   1.474       .  S
Cr129       O132   1.770       .  S
Cr130       O132   1.771       .  S
Cr131       O132   1.773       .  S
O133       Cr151   1.984       .  S
O133        C141   1.261       .  A
O134       Cr151   1.975       .  S
O134        C135   1.264       .  A
C135        O136   1.277       .  A
C135       C1018   1.503       .  S
O136       Cr152   2.041       .  S
O137       Cr152   2.003       .  S
O137        C138   1.265       .  A
C138        O139   1.257       .  A
C138        C562   1.493       .  S
O139       Cr153   1.975       .  S
O140       Cr153   1.989       .  S
O140        C141   1.261       .  A
C141        C946   1.476       .  S
O142       Cr151   1.994       .  S
O142        C150   1.264       .  A
O143       Cr151   1.978       .  S
O143        C144   1.254       .  A
C144        O145   1.262       .  A
C144        C922   1.488       .  S
O145       Cr152   2.008       .  S
O146       Cr152   2.023       .  S
O146        C147   1.273       .  A
C147        O148   1.264       .  A
C147        C533   1.504       .  S
O148       Cr153   1.983       .  S
O149       Cr153   1.996       .  S
O149        C150   1.263       .  A
C150        C586   1.477       .  S
Cr151       O154   1.769       .  S
Cr152       O154   1.771       .  S
Cr153       O154   1.769       .  S
O155       Cr173   1.942       .  S
O155        C163   1.252       .  A
O156       Cr173   2.032       .  S
O156        C157   1.273       .  A
C157        O158   1.263       .  A
C157        C461   1.504       .  S
O158       Cr174   1.975       .  S
O159       Cr174   2.025       .  S
O159        C160   1.269       .  A
C160        O161   1.256       .  A
C160       C2813   1.487       .  S
O161       Cr175   1.964       .  S
O162       Cr175   2.031       .  S
O162        C163   1.269       .  A
C163        C490   1.481       .  S
O164       Cr173   2.040       .  S
O164        C172   1.271       .  A
O165       Cr173   1.956       .  S
O165        C166   1.254       .  A
C166        O167   1.269       .  A
C166        C514   1.484       .  S
O167       Cr174   2.029       .  S
O168       Cr174   1.983       .  S
O168        C169   1.265       .  A
C169        O170   1.273       .  A
C169        C898   1.498       .  S
O170       Cr175   2.024       .  S
O171       Cr175   1.939       .  S
O171        C172   1.251       .  A
C172        C581   1.482       .  S
Cr173       O176   1.766       .  S
Cr174       O176   1.766       .  S
Cr175       O176   1.762       .  S
O177       Cr195   1.993       .  S
O177        C185   1.263       .  A
O178       Cr195   1.986       .  S
O178        C179   1.267       .  A
C179        O180   1.274       .  A
C179        C346   1.502       .  S
O180       Cr196   2.025       .  S
O181       Cr196   1.991       .  S
O181        C182   1.262       .  A
C182        O183   1.256       .  A
C182       C2621   1.484       .  S
O183       Cr197   1.971       .  S
O184       Cr197   1.993       .  S
O184        C185   1.263       .  A
C185        C413   1.474       .  S
O186       Cr195   2.008       .  S
O186        C194   1.267       .  A
O187       Cr195   1.985       .  S
O187        C188   1.257       .  A
C188        O189   1.259       .  A
C188        C442   1.490       .  S
O189       Cr196   1.992       .  S
O190       Cr196   2.017       .  S
O190        C191   1.272       .  A
C191        O192   1.264       .  A
C191        C754   1.502       .  S
O192       Cr197   1.985       .  S
O193       Cr197   1.981       .  S
O193        C194   1.260       .  A
C194        C394   1.487       .  S
Cr195       O198   1.770       .  S
Cr196       O198   1.768       .  S
Cr197       O198   1.765       .  S
O199       Cr217   1.954       .  S
O199        C207   1.253       .  A
O200       Cr217   2.023       .  S
O200        C201   1.271       .  A
C201        O202   1.263       .  A
C201        C730   1.499       .  S
O202       Cr218   1.974       .  S
O203       Cr218   2.022       .  S
O203        C204   1.269       .  A
C204        O205   1.253       .  A
C204       C1498   1.480   1_545  S
O205       Cr219   1.955       .  S
O206       Cr219   2.023       .  S
O206        C207   1.267       .  A
C207        C874   1.484   1_545  S
O208       Cr217   2.029       .  S
O208        C216   1.271       .  A
O209       Cr217   1.951       .  S
O209        C210   1.253       .  A
C210        O211   1.268       .  A
C210        C850   1.477       .  S
O211       Cr218   2.024       .  S
O212       Cr218   1.977       .  S
O212        C213   1.262       .  A
C213        O214   1.271       .  A
C213        C322   1.493       .  S
O214       Cr219   2.023       .  S
O215       Cr219   1.939       .  S
O215        C216   1.253       .  A
C216        C389   1.471       .  S
Cr217       O220   1.762       .  S
Cr218       O220   1.769       .  S
Cr219       O220   1.764       .  S
O221       Cr239   1.993       .  S
O221        C229   1.262       .  A
O222       Cr239   1.973       .  S
O222        C223   1.265       .  A
C223        O224   1.278       .  A
C223        C538   1.510       .  S
O224       Cr240   2.045       .  S
O225       Cr240   1.984       .  S
O225        C226   1.260       .  A
C226        O227   1.258       .  A
C226       C1402   1.482       .  S
O227       Cr241   1.980       .  S
O228       Cr241   2.002       .  S
O228        C229   1.266       .  A
C229        C509   1.489       .  S
O230       Cr239   1.998       .  S
O230        C238   1.265       .  A
O231       Cr239   1.982       .  S
O231        C232   1.257       .  A
C232        O233   1.256       .  A
C232        C485   1.488       .  S
O233       Cr240   1.986       .  S
O234       Cr240   2.028       .  S
O234        C235   1.274       .  A
C235        O236   1.265       .  A
C235        C341   1.507       .  S
O236       Cr241   1.986       .  S
O237       Cr241   1.993       .  S
O237        C238   1.263       .  A
C238        C293   1.484       .  S
Cr239       O242   1.770       .  S
Cr240       O242   1.774       .  S
Cr241       O242   1.770       .  S
O243       Cr261   1.988       .  S
O243        C251   1.261       .  A
O244       Cr261   1.979       .  S
O244        C245   1.264       .  A
C245        O246   1.271       .  A
C245        C317   1.500       .  S
O246       Cr262   2.022       .  S
O247       Cr262   1.986       .  S
O247        C248   1.261       .  A
C248        O249   1.260       .  A
C248        C269   1.472       .  S
O249       Cr263   1.980       .  S
O250       Cr263   1.995       .  S
O250        C251   1.263       .  A
C251        C437   1.473       .  S
O252       Cr261   1.990       .  S
O252        C260   1.263       .  A
O253       Cr261   1.986       .  S
O253        C254   1.259       .  A
C254        O255   1.260       .  A
C254        C418   1.486       .  S
O255       Cr262   1.987       .  S
O256       Cr262   2.012       .  S
O256        C257   1.268       .  A
C257        O258   1.266       .  A
C257        C466   1.500       .  S
O258       Cr263   1.995       .  S
O259       Cr263   1.989       .  S
O259        C260   1.261       .  A
C260        C298   1.479       .  S
Cr261       O264   1.769       .  S
Cr262       O264   1.768       .  S
Cr263       O264   1.770       .  S
C265        C266   1.410       .  A
C265        C270   1.401       .  A
C265        C279   1.444       .  S
C266        C271   1.473       .  S
C266        C267   1.397       .  A
C267        C268   1.393       .  A
C267        H286   1.085       .  S
C268        C269   1.414       .  A
C268        C280   1.445       .  S
C269        C270   1.404       .  A
C270        H285   1.084       .  S
C271        C272   1.395       .  A
C271        C276   1.410       .  A
C272        C273   1.393       .  A
C272        H287   1.086       .  S
C273        C274   1.421       .  A
C273       C1405   1.446   1_545  S
C274       C1354   1.478   1_545  S
C274        C275   1.404       .  A
C275        C276   1.398       .  A
C275        H288   1.086       .  S
C276        C278   1.444       .  S
C277       C1401   1.446       .  S
C277        N281   1.158       .  T
C278        N282   1.157       .  T
C279        N284   1.157       .  T
C280        N283   1.157       .  T
C289        C290   1.407       .  A
C289        C294   1.396       .  A
C289        C303   1.445       .  S
C290        C295   1.483       .  S
C290        C291   1.405       .  A
C291        C292   1.404       .  A
C291        H310   1.080       .  S
C292        C293   1.413       .  A
C292        C304   1.443       .  S
C293        C294   1.409       .  A
C294        H309   1.081       .  S
C295        C296   1.399       .  A
C295        C300   1.412       .  A
C296        C297   1.396       .  A
C296        H311   1.095       .  S
C297        C298   1.417       .  A
C297        C301   1.445       .  S
C298        C299   1.404       .  A
C299        C300   1.401       .  A
C299        H312   1.089       .  S
C300        C302   1.444       .  S
C301        N305   1.157       .  T
C302        N306   1.157       .  T
C303        N308   1.157       .  T
C304        N307   1.157       .  T
C313        C314   1.409       .  A
C313        C318   1.403       .  A
C313        C327   1.444       .  S
C314        C319   1.489       .  S
C314        C315   1.402       .  A
C315        C316   1.404       .  A
C315        H334   1.086       .  S
C316        C317   1.420       .  A
C316        C328   1.444       .  S
C317        C318   1.411       .  A
C318        H333   1.083       .  S
C319        C320   1.402       .  A
C319        C324   1.410       .  A
C320        C321   1.402       .  A
C320        H335   1.085       .  S
C321        C322   1.418       .  A
C321        C325   1.444       .  S
C322        C323   1.409       .  A
C323        C324   1.403       .  A
C323        H336   1.084       .  S
C324        C326   1.444       .  S
C325        N329   1.157       .  T
C326        N330   1.157       .  T
C327        N332   1.157       .  T
C328        N331   1.157       .  T
C337        C338   1.411       .  A
C337        C342   1.406       .  A
C337        C351   1.444       .  S
C338        C343   1.500       .  S
C338        C339   1.404       .  A
C339        C340   1.408       .  A
C339        H358   1.085       .  S
C340        C341   1.423       .  A
C340        C352   1.445       .  S
C341        C342   1.411       .  A
C342        H357   1.084       .  S
C343        C344   1.405       .  A
C343       C2604   1.411       .  A
C344       C2601   1.408       .  A
C344        H359   1.086       .  S
C345        C346   1.420       .  A
C345       C2600   1.407       .  A
C345       C2605   1.444       .  S
C346        C347   1.409       .  A
C347        C348   1.406       .  A
C347        H360   1.085       .  S
C348       C2599   1.412       .  A
C348        C350   1.443       .  S
C349       C2601   1.444   1_655  S
C349        N353   1.158       .  T
C350        N354   1.157       .  T
C351       N2612   1.157   1_455  T
C352        N355   1.158       .  T
N356       C2607   1.157       .  T
C361        C362   1.409       .  A
C361        C366   1.401       .  A
C361        C375   1.443       .  S
C362        C367   1.476       .  S
C362        C363   1.397       .  A
C363        C364   1.396       .  A
C363        H382   1.085       .  S
C364        C365   1.420       .  A
C364        C376   1.446   1_455  S
C365       C2438   1.481   1_455  S
C365        C366   1.405       .  A
C366        H381   1.084       .  S
C367        C368   1.400       .  A
C367        C372   1.406       .  A
C368        C369   1.400       .  A
C368        H383   1.084       .  S
C369        C370   1.417       .  A
C369       C1501   1.445       .  S
C370       C1332   1.481       .  S
C370        C371   1.407       .  A
C371        C372   1.397       .  A
C371        H384   1.084       .  S
C372        C374   1.444       .  S
C373       C1497   1.445       .  S
C373        N377   1.158       .  T
C374        N378   1.157       .  T
C375        N380   1.157       .  T
C376        N379   1.158       .  T
C385        C386   1.413       .  A
C385        C390   1.403       .  A
C385        C399   1.443       .  S
C386        C391   1.479       .  S
C386        C387   1.398       .  A
C387        C388   1.395       .  A
C387        H406   1.085       .  S
C388        C389   1.413       .  A
C388        C400   1.445       .  S
C389        C390   1.402       .  A
C390        H405   1.085       .  S
C391        C392   1.405       .  A
C391        C396   1.403       .  A
C392        C393   1.406       .  A
C392        H407   1.084       .  S
C393        C394   1.415       .  A
C393        C397   1.443       .  S
C394        C395   1.410       .  A
C395        C396   1.393       .  A
C395        H408   1.084       .  S
C396        C398   1.445       .  S
C397        N401   1.157       .  T
C398        N402   1.157       .  T
C399        N404   1.157       .  T
C400        N403   1.157       .  T
C409        C410   1.412       .  A
C409       C2670   1.403       .  A
C409        C423   1.443       .  S
C410        C415   1.481       .  S
C410        C411   1.399       .  A
C411       C2668   1.397   1_455  A
C411        H430   1.085   1_455  S
C412        C413   1.414       .  A
C412       C2667   1.395       .  A
C412        C424   1.445       .  S
C413        C414   1.403       .  A
C414       C2665   1.403       .  A
C414        H429   1.085       .  S
C415        C416   1.404       .  A
C415        C420   1.405       .  A
C416        C417   1.403       .  A
C416        H431   1.085       .  S
C417        C418   1.416       .  A
C417        C421   1.445       .  S
C418        C419   1.409       .  A
C419        C420   1.397       .  A
C419        H432   1.084       .  S
C420        C422   1.444       .  S
C421        N425   1.158       .  T
C422        N426   1.157       .  T
C423        N428   1.157       .  T
C424        N427   1.157       .  T
C433        C434   1.410       .  A
C433        C438   1.396       .  A
C433        C447   1.445       .  S
C434        C439   1.487       .  S
C434        C435   1.407       .  A
C435        C436   1.404       .  A
C435        H454   1.084       .  S
C436        C437   1.408       .  A
C436        C448   1.442       .  S
C437        C438   1.403       .  A
C438        H453   1.082       .  S
C439        C440   1.405       .  A
C439        C444   1.406       .  A
C440        C441   1.402       .  A
C440        H455   1.085       .  S
C441        C442   1.416       .  A
C441        C445   1.444       .  S
C442        C443   1.411       .  A
C443        C444   1.398       .  A
C443        H456   1.085       .  S
C444        C446   1.444       .  S
C445        N449   1.157       .  T
C446        N450   1.157       .  T
C447        N452   1.157       .  T
C448        N451   1.157       .  T
C457        C458   1.408       .  A
C457        C462   1.402       .  A
C457        C471   1.444       .  S
C458        C463   1.494       .  S
C458       C2715   1.404   1_455  A
C459        C460   1.410       .  A
C459       C2714   1.404       .  A
C459        H478   1.086       .  S
C460        C461   1.422       .  A
C460        C472   1.443       .  S
C461       C2718   1.410       .  A
C462       C2717   1.411   1_455  A
C462        H477   1.085       .  S
C463        C464   1.401       .  A
C463        C468   1.410       .  A
C464        C465   1.403       .  A
C464        H479   1.088       .  S
C465        C466   1.421       .  A
C465        C469   1.444       .  S
C466        C467   1.410       .  A
C467        C468   1.408       .  A
C467        H480   1.089       .  S
C468        C470   1.443       .  S
C469        N473   1.158       .  T
C470        N474   1.157       .  T
C471        N476   1.157       .  T
C472        N475   1.158       .  T
C481        C482   1.403       .  A
C481        C486   1.394       .  A
C481        C495   1.444       .  S
C482        C487   1.477       .  S
C482        C483   1.403       .  A
C483        C484   1.402       .  A
C483       H2758   1.086       .  S
C484        C485   1.418       .  A
C484        C496   1.444       .  S
C485        C486   1.410       .  A
C486        H501   1.085       .  S
C487        C488   1.404       .  A
C487        C492   1.406       .  A
C488        C489   1.403   1_455  A
C488        H503   1.085       .  S
C489       C2746   1.412       .  A
C489        C493   1.443       .  S
C490        C491   1.408       .  A
C490       C2745   1.413       .  A
C491       C2748   1.394       .  A
C491        H504   1.085       .  S
C492       C2747   1.392       .  A
C492       C2750   1.445       .  S
C493        N497   1.157       .  T
C494       C2748   1.445       .  S
C494        N498   1.157       .  T
C495        N500   1.157       .  T
C496        N499   1.158       .  T
H502       C2739   1.086       .  S
C505        C506   1.415       .  A
C505       C1638   1.402       .  A
C505        C519   1.444       .  S
C506        C511   1.488       .  S
C506        C507   1.401       .  A
C507        C508   1.396   1_545  A
C507        H526   1.085   1_545  S
C508       C1637   1.415       .  A
C508        C520   1.446       .  S
C509        C510   1.405       .  A
C509       C1636   1.420       .  A
C510       C1633   1.406       .  A
C510        H525   1.084       .  S
C511        C512   1.401       .  A
C511        C516   1.413       .  A
C512        C513   1.397       .  A
C512        H527   1.085       .  S
C513        C514   1.416       .  A
C513        C517   1.444       .  S
C514        C515   1.405       .  A
C515        C516   1.403       .  A
C515        H528   1.085       .  S
C516        C518   1.444       .  S
C517        N521   1.157       .  T
C518       N1650   1.157       .  T
C519        N524   1.157       .  T
C520        N523   1.157       .  T
N522       C1646   1.157       .  T
C529        C530   1.412       .  A
C529        C534   1.404       .  A
C529       C1671   1.443       .  S
C530        C535   1.503       .  S
C530        C531   1.406       .  A
C531        C532   1.408       .  A
C531        H550   1.084       .  S
C532        C533   1.421       .  A
C532        C544   1.445       .  S
C533        C534   1.410       .  A
C534        H549   1.083       .  S
C535        C540   1.412       .  A
C535       C1664   1.407       .  A
C536        C537   1.412       .  A
C536       C1663   1.409       .  A
C536        H551   1.083       .  S
C537        C538   1.420       .  A
C537        C541   1.443       .  S
C538       C1667   1.412       .  A
C539        C540   1.404   1_565  A
C539       C1666   1.410       .  A
C539        H552   1.084       .  S
C540        C542   1.444       .  S
C541        N545   1.157       .  T
C542        N546   1.157       .  T
C543       C1657   1.444       .  S
C543        N548   1.157       .  T
C544        N547   1.158       .  T
C553        C554   1.409       .  A
C553        C558   1.401       .  A
C553        C567   1.444       .  S
C554        C559   1.485       .  S
C554        C555   1.402       .  A
C555        C556   1.402       .  A
C555        H574   1.085       .  S
C556        C557   1.417       .  A
C556       C2824   1.445       .  S
C557       C2416   1.487   1_455  S
C557        C558   1.407       .  A
C558        H573   1.084   1_455  S
C559        C560   1.396       .  A
C559        C564   1.411       .  A
C560        C561   1.397       .  A
C560        H575   1.085       .  S
C561        C562   1.425       .  A
C561        C565   1.446       .  S
C562        C563   1.407       .  A
C563        C564   1.406       .  A
C563        H576   1.084       .  S
C564        C566   1.443       .  S
C565        N569   1.158       .  T
C566        N570   1.157       .  T
C567        N572   1.157       .  T
C568       C2812   1.445       .  S
C568        N571   1.158       .  T
C577        C578   1.412       .  A
C577        C582   1.405       .  A
C577        C591   1.443       .  S
C578        C583   1.479       .  S
C578        C579   1.395       .  A
C579        C580   1.395       .  A
C579        H598   1.086       .  S
C580        C581   1.420       .  A
C580        C592   1.446       .  S
C581        C582   1.403       .  A
C582        H597   1.084       .  S
C583        C584   1.404       .  A
C583        C588   1.405       .  A
C584        C585   1.402       .  A
C584        H599   1.084       .  S
C585        C586   1.411       .  A
C585        C589   1.444       .  S
C586        C587   1.407       .  A
C587        C588   1.398       .  A
C587        H600   1.085       .  S
C588        C590   1.444       .  S
C589        N593   1.157       .  T
C590        N594   1.157       .  T
C591        N596   1.157       .  T
C592        N595   1.157       .  T
C601        C602   1.411       .  A
C601        C606   1.403       .  A
C601        C615   1.444       .  S
C602        C607   1.481       .  S
C602        C603   1.397       .  A
C603        C604   1.396       .  A
C603        H622   1.086       .  S
C604        C605   1.421       .  A
C604       C1744   1.446       .  S
C605       C1222   1.484       .  S
C605        C606   1.405       .  A
C606        H621   1.085       .  S
C607        C608   1.400       .  A
C607        C612   1.410       .  A
C608        C609   1.397       .  A
C608        H623   1.084       .  S
C609        C610   1.416       .  A
C609        C613   1.445       .  S
C610        C611   1.407       .  A
C611        C612   1.403       .  A
C611        H624   1.084       .  S
C612        C614   1.444       .  S
C613        N617   1.157       .  T
C614        N618   1.157       .  T
C615        N620   1.157       .  T
C616       C1732   1.446       .  S
C616        N619   1.158       .  T
C625        C626   1.410       .  A
C625        C630   1.399       .  A
C625        C639   1.443       .  S
C626        C631   1.471       .  S
C626        C627   1.396       .  A
C627        C628   1.394       .  A
C627        H646   1.086       .  S
C628        C629   1.416       .  A
C628        C640   1.446       .  S
C629        C630   1.399       .  A
C630        H645   1.085       .  S
C631        C632   1.400       .  A
C631        C636   1.404       .  A
C632        C633   1.398       .  A
C632        H647   1.085       .  S
C633        C634   1.411       .  A
C633        C637   1.440       .  S
C634        C635   1.407       .  A
C635        C636   1.397       .  A
C635        H648   1.085       .  S
C636        C638   1.444       .  S
C637        N641   1.156       .  T
C638        N642   1.157       .  T
C639        N644   1.157       .  T
C640        N643   1.158       .  T
C649        C650   1.410       .  A
C649        C654   1.405       .  A
C649        C663   1.444       .  S
C650        C655   1.490       .  S
C650        C651   1.402       .  A
C651        C652   1.404       .  A
C651        H670   1.085       .  S
C652        C653   1.416       .  A
C652        C664   1.444       .  S
C653        C654   1.408       .  A
C654        H669   1.085       .  S
C655        C656   1.402       .  A
C655        C660   1.408       .  A
C656       C2913   1.406       .  A
C656       H2927   1.085       .  S
C657        C658   1.421   1_655  A
C657       C2912   1.405       .  A
C657        C661   1.443       .  S
C658       C2915   1.409       .  A
C659        C660   1.403       .  A
C659       C2914   1.410       .  A
C659        H672   1.084       .  S
C660        C662   1.444       .  S
C661        N665   1.157       .  T
C662        N666   1.157       .  T
C663        N668   1.157       .  T
C664        N667   1.157       .  T
H671       C2912   1.085       .  S
C673        C678   1.396   1_655  A
C673       C2930   1.409       .  A
C673        C687   1.444   1_655  S
C674        C679   1.485       .  S
C674        C675   1.405       .  A
C674       C2929   1.409       .  A
C675        C676   1.403       .  A
C675        H694   1.085       .  S
C676       C2933   1.413       .  A
C676        C688   1.444       .  S
C677        C678   1.406       .  A
C677       C2932   1.413   1_455  A
C678        H693   1.085       .  S
C679        C680   1.405       .  A
C679        C684   1.411       .  A
C680        C681   1.402       .  A
C680        H695   1.084       .  S
C681        C682   1.411       .  A
C681        C685   1.444       .  S
C682        C683   1.403       .  A
C683        C684   1.396       .  A
C683        H696   1.084       .  S
C684        C686   1.444       .  S
C685        N689   1.157       .  T
C686        N690   1.157       .  T
C687        N692   1.157       .  T
C688        N691   1.157       .  T
C697        C698   1.410       .  A
C697        C702   1.397       .  A
C697        C711   1.444       .  S
C698        C703   1.490       .  S
C698        C699   1.406       .  A
C699        C700   1.402       .  A
C699        H718   1.085       .  S
C700        C701   1.416       .  A
C700        C712   1.445       .  S
C701        C702   1.408       .  A
C702        H717   1.085       .  S
C703        C708   1.411       .  A
C703       C1832   1.405       .  A
C704        C705   1.400   1_565  A
C704       C1831   1.401       .  A
C704        H719   1.085       .  S
C705        C706   1.413       .  A
C705        C709   1.442       .  S
C706       C1835   1.404   1_545  A
C707        C708   1.396       .  A
C707       C1834   1.408       .  A
C707        H720   1.085       .  S
C708        C710   1.445       .  S
C709        N713   1.156       .  T
C710        N714   1.157       .  T
C711        N716   1.157       .  T
C712        N715   1.158       .  T
C721        C722   1.411       .  A
C721        C726   1.401       .  A
C721        C735   1.444       .  S
C722        C727   1.493       .  S
C722        C723   1.403       .  A
C723        C724   1.404       .  A
C723        H742   1.085       .  S
C724        C725   1.421       .  A
C724        C736   1.444       .  S
C725        C726   1.409       .  A
C726        H741   1.084       .  S
C727        C728   1.403       .  A
C727        C732   1.412       .  A
C728       C1857   1.403       .  A
C728        H743   1.085       .  S
C729        C730   1.421       .  A
C729       C1856   1.404       .  A
C729        C733   1.443       .  S
C730        C731   1.411   1_545  A
C731       C1860   1.401       .  A
C731        H744   1.084       .  S
C732       C1859   1.404       .  A
C732        C734   1.444       .  S
C733        N737   1.157       .  T
C734        N738   1.157       .  T
C735        N740   1.157       .  T
C736        N739   1.157       .  T
C745        C746   1.409       .  A
C745        C750   1.407       .  A
C745        C759   1.443       .  S
C746        C751   1.492       .  S
C746        C747   1.401       .  A
C747        C748   1.404       .  A
C747        H766   1.085       .  S
C748        C749   1.420       .  A
C748        C760   1.444       .  S
C749        C750   1.411       .  A
C750        H765   1.084       .  S
C751        C752   1.403       .  A
C751        C756   1.408       .  A
C752        C753   1.407       .  A
C752        H767   1.086       .  S
C753        C754   1.422       .  A
C753        C757   1.444       .  S
C754        C755   1.410       .  A
C755        C756   1.402       .  A
C755        H768   1.085       .  S
C756        C758   1.443       .  S
C757        N761   1.157       .  T
C758        N762   1.157       .  T
C759        N764   1.157       .  T
C760        N763   1.157       .  T
C769        C770   1.409       .  A
C769        C774   1.407       .  A
C769        C783   1.443       .  S
C770        C775   1.495       .  S
C770        C771   1.402       .  A
C771        C772   1.405       .  A
C771        H790   1.085       .  S
C772        C773   1.421       .  A
C772        C784   1.444       .  S
C773        C774   1.412       .  A
C774        H789   1.084       .  S
C775        C776   1.401       .  A
C775        C780   1.412       .  A
C776       C1905   1.403       .  A
C776        H791   1.085       .  S
C777        C778   1.421       .  A
C777       C1904   1.404   1_545  A
C777        C781   1.444       .  S
C778        C779   1.410       .  A
C779       C1908   1.406   1_545  A
C779        H792   1.084       .  S
C780       C1907   1.409       .  A
C780        C782   1.443       .  S
C781        N785   1.157       .  T
C782        N786   1.157       .  T
C783       N1916   1.157       .  T
C784        N787   1.157       .  T
N788       C1911   1.157       .  T
C793        C794   1.410       .  A
C793        C798   1.398       .  A
C793        C807   1.445       .  S
C794        C799   1.479       .  S
C794        C795   1.400       .  A
C795        C796   1.394       .  A
C795        H814   1.085       .  S
C796        C797   1.419       .  A
C796        C808   1.445       .  S
C797        C798   1.407       .  A
C798        H813   1.084       .  S
C799        C800   1.399       .  A
C799        C804   1.412       .  A
C800        C801   1.391       .  A
C800        H815   1.085       .  S
C801        C802   1.415       .  A
C801        C805   1.446       .  S
C802       C2328   1.474       .  S
C802        C803   1.404       .  A
C803        C804   1.401       .  A
C803        H816   1.085       .  S
C804        C806   1.444       .  S
C805        N809   1.157       .  T
C806        N810   1.157       .  T
C807        N812   1.157       .  T
C808        N811   1.158       .  T
C817        C818   1.404       .  A
C817        C822   1.395       .  A
C817        C831   1.445       .  S
C818        C823   1.481       .  S
C818        C819   1.405       .  A
C819        C820   1.405       .  A
C819        H838   1.085       .  S
C820        C821   1.414       .  A
C820        C832   1.444       .  S
C821        C822   1.411       .  A
C822        H837   1.085       .  S
C823        C824   1.397       .  A
C823        C828   1.412       .  A
C824        C825   1.396       .  A
C824        H839   1.085       .  S
C825        C826   1.415       .  A
C825        C829   1.444       .  S
C826        C827   1.403       .  A
C827        C828   1.404       .  A
C827        H840   1.085       .  S
C828        C830   1.444       .  S
C829        N833   1.157       .  T
C830        N834   1.157       .  T
C831        N836   1.157       .  T
C832        N835   1.158       .  T
C841        C842   1.406       .  A
C841        C846   1.396       .  A
C841        C855   1.445       .  S
C842        C847   1.480       .  S
C842        C843   1.402       .  A
C843        C844   1.405       .  A
C843        H862   1.085       .  S
C844        C845   1.415       .  A
C844        C856   1.441       .  S
C845        C846   1.410       .  A
C846        H861   1.085       .  S
C847        C848   1.405       .  A
C847        C852   1.405       .  A
C848        C849   1.404       .  A
C848        H863   1.084       .  S
C849        C850   1.410       .  A
C849        C853   1.444       .  S
C850        C851   1.406       .  A
C851        C852   1.396       .  A
C851        H864   1.084       .  S
C852        C854   1.444       .  S
C853        N857   1.157       .  T
C854        N858   1.157       .  T
C855        N860   1.157       .  T
C856        N859   1.157       .  T
C865        C866   1.414       .  A
C865        C870   1.405       .  A
C865        C879   1.443       .  S
C866        C871   1.486       .  S
C866        C867   1.400       .  A
C867        C868   1.396       .  A
C867        H886   1.085       .  S
C868        C869   1.414       .  A
C868        C880   1.445       .  S
C869        C870   1.404       .  A
C870        H885   1.085       .  S
C871        C872   1.403       .  A
C871       C2004   1.411       .  A
C872        C873   1.396       .  A
C872        H887   1.085       .  S
C873       C2002   1.410       .  A
C873        C877   1.445       .  S
C874        C875   1.408       .  A
C874       C2001   1.418       .  A
C875        C876   1.404       .  A
C875        H888   1.084   1_565  S
C876       C1999   1.407       .  A
C876        C878   1.443       .  S
C877        N881   1.157       .  T
C878        N882   1.157       .  T
C879        N884   1.157       .  T
C880        N883   1.157       .  T
C889        C890   1.412       .  A
C889       C2022   1.404   1_545  A
C889        C903   1.445       .  S
C890        C895   1.500       .  S
C890        C891   1.404   1_545  A
C891       C2020   1.407       .  A
C891        H910   1.085       .  S
C892        C893   1.420       .  A
C892       C2019   1.407       .  A
C892        C904   1.444       .  S
C893        C894   1.409       .  A
C894       C2017   1.401       .  A
C894        H909   1.085       .  S
C895        C896   1.405       .  A
C895        C900   1.413       .  A
C896        C897   1.407       .  A
C896        H911   1.085       .  S
C897        C898   1.419       .  A
C897        C901   1.444       .  S
C898        C899   1.408       .  A
C899        C900   1.403       .  A
C899        H912   1.085       .  S
C900        C902   1.444       .  S
C901        N905   1.157       .  T
C902        N906   1.157       .  T
C903        N908   1.157       .  T
C904        N907   1.157       .  T
C913        C914   1.411       .  A
C913        C918   1.404   1_545  A
C913        C927   1.443       .  S
C914        C919   1.485       .  S
C914       C2043   1.402       .  A
C915        C916   1.396       .  A
C915       C2042   1.401       .  A
C915        H934   1.085       .  S
C916        C917   1.413       .  A
C916        C928   1.445       .  S
C917       C2046   1.405       .  A
C918       C2045   1.405       .  A
C918        H933   1.084       .  S
C919        C920   1.397       .  A
C919        C924   1.412       .  A
C920        C921   1.394       .  A
C920        H935   1.086       .  S
C921        C922   1.420       .  A
C921        C925   1.446       .  S
C922        C923   1.407       .  A
C923        C924   1.408       .  A
C923        H936   1.085       .  S
C924       C2054   1.443       .  S
C925        N929   1.157       .  T
C926       C2052   1.443       .  S
C926        N930   1.157       .  T
C927        N932   1.157       .  T
C928        N931   1.157       .  T
C937        C938   1.409       .  A
C937        C942   1.395       .  A
C937        C951   1.445       .  S
C938        C943   1.477       .  S
C938        C939   1.403       .  A
C939        C940   1.397       .  A
C939        H958   1.085       .  S
C940        C941   1.412       .  A
C940        C952   1.444       .  S
C941        C942   1.404       .  A
C942        H957   1.085       .  S
C943        C944   1.405       .  A
C943        C948   1.407       .  A
C944        C945   1.402       .  A
C944        H959   1.084       .  S
C945        C946   1.412       .  A
C945        C949   1.444       .  S
C946        C947   1.406       .  A
C947        C948   1.391       .  A
C947        H960   1.085       .  S
C948        C950   1.445       .  S
C949        N953   1.157       .  T
C950        N954   1.157       .  T
C951        N956   1.157       .  T
C952        N955   1.157       .  T
C961        C962   1.407       .  A
C961        C966   1.401       .  A
C961        C975   1.444       .  S
C962        C967   1.488       .  S
C962        C963   1.402       .  A
C963        C964   1.406       .  A
C963        H982   1.085       .  S
C964        C965   1.419       .  A
C964        C976   1.444       .  S
C965        C966   1.410       .  A
C966        H981   1.085       .  S
C967        C968   1.401       .  A
C967        C972   1.409       .  A
C968        C969   1.404       .  A
C968        H983   1.084       .  S
C969        C970   1.417       .  A
C969        C973   1.443       .  S
C970        C971   1.407       .  A
C971        C972   1.403       .  A
C971        H984   1.084       .  S
C972        C974   1.443       .  S
C973        N977   1.157   1_556  T
C974        N978   1.157       .  T
C975        N980   1.157       .  T
C976        N979   1.158       .  T
C985        C990   1.402   1_655  A
C985       C3242   1.411       .  A
C985        C999   1.445       .  S
C986        C991   1.494       .  S
C986        C987   1.403       .  A
C986       C3241   1.411       .  A
C987        C988   1.405       .  A
C987       H1006   1.085       .  S
C988       C3245   1.421       .  A
C988       C1000   1.443       .  S
C989        C990   1.409       .  A
C989       C3244   1.420   1_455  A
C990       H1005   1.085       .  S
C991        C992   1.405       .  A
C991        C996   1.412       .  A
C992        C993   1.406       .  A
C992       H1007   1.085       .  S
C993        C994   1.416       .  A
C993        C997   1.443       .  S
C994        C995   1.405       .  A
C995        C996   1.401       .  A
C995       H1008   1.085       .  S
C996        C998   1.444       .  S
C997       N1001   1.157       .  T
C998       N1002   1.157       .  T
C999       N1004   1.157       .  T
C1000      N1003   1.157       .  T
C1009      C1010   1.410       .  A
C1009      C1014   1.407       .  A
C1009      C1023   1.444       .  S
C1010      C1015   1.502       .  S
C1010      C1011   1.405       .  A
C1011      C1012   1.409       .  A
C1011      H1030   1.084       .  S
C1012      C1013   1.421       .  A
C1012      C1024   1.444       .  S
C1013      C1014   1.413       .  A
C1014      H1029   1.083       .  S
C1015      C1016   1.407       .  A
C1015      C1020   1.410       .  A
C1016      C1017   1.409       .  A
C1016      H1031   1.084       .  S
C1017      C1018   1.418       .  A
C1017      C1021   1.443       .  S
C1018      C1019   1.411       .  A
C1019      C1020   1.405       .  A
C1019      H1032   1.084       .  S
C1020      C1022   1.444       .  S
C1021      N1025   1.157       .  T
C1022      N1026   1.157       .  T
C1023      N1028   1.157       .  T
C1024      N1027   1.158       .  T
C1033      C1034   1.405       .  A
C1033      C1038   1.396       .  A
C1033      C1047   1.444       .  S
C1034      C1039   1.473       .  S
C1034      C1035   1.398       .  A
C1035      C1036   1.398       .  A
C1035      H1054   1.086       .  S
C1036      C1037   1.419       .  A
C1036      C1048   1.444   1_545  S
C1037      C1156   1.485   1_545  S
C1037      C1038   1.409       .  A
C1038      H1053   1.085       .  S
C1039      C1040   1.403       .  A
C1039      C1044   1.402       .  A
C1040      C1041   1.403       .  A
C1040      H1055   1.085       .  S
C1041      C1042   1.415       .  A
C1041      C1045   1.443       .  S
C1042      C2262   1.486       .  S
C1042      C1043   1.412       .  A
C1043      C1044   1.391       .  A
C1043      H3312   1.084       .  S
C1044      C1046   1.446       .  S
C1045      N1049   1.157       .  T
C1046      N1050   1.157       .  T
C1047      N1052   1.157       .  T
C1048      N2179   1.157       .  T
N1051      C2176   1.157       .  T
H1056      C3299   1.084       .  S
C1057      C1058   1.405       .  A
C1057      C1062   1.393       .  A
C1057      C1071   1.445       .  S
C1058      C1063   1.476       .  S
C1058      C1059   1.405       .  A
C1059      C1060   1.403       .  A
C1059      H1078   1.084       .  S
C1060      C1061   1.411       .  A
C1060      C1072   1.443       .  S
C1061      C1062   1.407       .  A
C1062      H1077   1.085       .  S
C1063      C1064   1.397       .  A
C1063      C1068   1.412       .  A
C1064      C1065   1.395       .  A
C1064      H1079   1.086       .  S
C1065      C1066   1.418       .  A
C1065      C1069   1.446       .  S
C1066      C1067   1.402       .  A
C1067      C1068   1.400       .  A
C1067      H1080   1.086       .  S
C1068      C1070   1.444       .  S
C1069      N1073   1.157       .  T
C1070      N1074   1.157       .  T
C1071      N1076   1.157       .  T
C1072      N1075   1.157       .  T
C1081      C1082   1.412   1_554  A
C1081      C1086   1.402       .  A
C1081      C1095   1.443       .  S
C1082      C1087   1.485       .  S
C1082      C1083   1.400       .  A
C1083      C1084   1.402       .  A
C1083      H1102   1.085       .  S
C1084      C1085   1.416   1_556  A
C1084      C1096   1.445       .  S
C1085      C1086   1.401       .  A
C1086      H1101   1.084       .  S
C1087      C1088   1.406       .  A
C1087      C3348   1.406       .  A
C1088      C1089   1.409       .  A
C1088      H1103   1.085       .  S
C1089      C3346   1.413       .  A
C1089      C1093   1.443       .  S
C1090      C1091   1.408       .  A
C1090      C3345   1.414   1_455  A
C1091      C1092   1.396   1_455  A
C1091      H1104   1.086       .  S
C1092      C3343   1.406       .  A
C1092      C1094   1.444   1_655  S
C1093      N1097   1.157       .  T
C1094      N1098   1.157       .  T
C1095      N1100   1.157       .  T
C1096      N1099   1.157       .  T
C1105      C1106   1.413       .  A
C1105      C1110   1.404       .  A
C1105      C1119   1.443       .  S
C1106      C1111   1.484       .  S
C1106      C1107   1.398       .  A
C1107      C1108   1.393       .  A
C1107      H1126   1.086       .  S
C1108      C1109   1.419       .  A
C1108      C1120   1.446       .  S
C1109      C1110   1.405       .  A
C1110      H1125   1.085       .  S
C1111      C1112   1.399       .  A
C1111      C1116   1.413       .  A
C1112      C1113   1.396       .  A
C1112      H1127   1.085       .  S
C1113      C1114   1.418       .  A
C1113      C1117   1.445       .  S
C1114      C1115   1.402       .  A
C1115      C1116   1.401       .  A
C1115      H1128   1.085       .  S
C1116      C1118   1.444       .  S
C1117      N1121   1.157       .  T
C1118      N1122   1.157       .  T
C1119      N1124   1.157       .  T
C1120      N1123   1.157   1_554  T
O1129     Cr1147   1.985       .  S
O1129      C1137   1.258       .  A
O1130     Cr1147   1.990   1_554  S
O1130      C1131   1.266       .  A
C1131      O1132   1.273   1_554  A
C1131      C2117   1.505       .  S
O1132     Cr1148   2.020       .  S
O1133     Cr1148   1.994       .  S
O1133      C1134   1.261       .  A
C1134      O1135   1.257       .  A
C1134      C4426   1.488   1_455  S
O1135     Cr1149   1.967       .  S
O1136     Cr1149   2.005       .  S
O1136      C1137   1.264       .  A
C1137      C2218   1.473   1_455  S
O1138     Cr1147   2.001       .  S
O1138      C1146   1.267       .  A
O1139     Cr1147   1.980   1_554  S
O1139      C1140   1.256   1_554  A
C1140      O1141   1.262       .  A
C1140      C2242   1.480   1_556  S
O1141     Cr1148   1.994       .  S
O1142     Cr1148   2.028       .  S
O1142      C1143   1.273       .  A
C1143      O1144   1.267       .  A
C1143      C2141   1.508       .  S
O1144     Cr1149   1.992       .  S
O1145     Cr1149   1.987       .  S
O1145      C1146   1.261       .  A
C1146      C2194   1.486       .  S
Cr1147     O1150   1.773       .  S
Cr1148     O1150   1.771       .  S
Cr1149     O1150   1.767       .  S
O1151     Cr1169   1.955       .  S
O1151      C1159   1.253       .  A
O1152     Cr1169   2.031       .  S
O1152      C1153   1.273       .  A
C1153      O1154   1.264       .  A
C1153      C2021   1.504       .  S
O1154     Cr1170   1.978       .  S
O1155     Cr1170   2.011       .  S
O1155      C1156   1.266       .  A
C1156      O1157   1.258       .  A
O1157     Cr1171   1.965       .  S
O1158     Cr1171   2.024       .  S
O1158      C1159   1.267       .  A
C1159      C2045   1.478       .  S
O1160     Cr1169   2.030       .  S
O1160      C1168   1.271       .  A
O1161     Cr1169   1.952       .  S
O1161      C1162   1.251       .  A
C1162      O1163   1.265       .  A
C1162      C2069   1.474       .  S
O1163     Cr1170   2.019       .  S
O1164     Cr1170   1.986       .  S
O1164      C1165   1.265       .  A
C1165      O1166   1.271       .  A
C1165      C2093   1.498       .  S
O1166     Cr1171   2.019       .  S
O1167     Cr1171   1.945       .  S
O1167      C1168   1.254       .  A
C1168      C2189   1.478       .  S
Cr1169     O1172   1.760       .  S
Cr1170     O1172   1.769       .  S
Cr1171     O1172   1.764       .  S
O1173     Cr1191   1.950       .  S
O1173      C1181   1.253       .  A
O1174     Cr1191   2.026       .  S
O1174      C1175   1.272       .  A
C1175      O1176   1.263       .  A
C1175      C1877   1.505       .  S
O1176     Cr1192   1.981       .  S
O1177     Cr1192   2.008       .  S
O1177      C1178   1.266       .  A
C1178      O1179   1.256       .  A
C1178      C1925   1.481       .  S
O1179     Cr1193   1.964       .  S
O1180     Cr1193   2.030       .  S
O1180      C1181   1.268       .  A
C1181      C1973   1.492       .  S
O1182     Cr1191   2.025       .  S
O1182      C1190   1.269       .  A
O1183     Cr1191   1.952       .  S
O1183      C1184   1.253       .  A
C1184      O1185   1.265       .  A
C1184      C1997   1.471       .  S
O1185     Cr1192   2.018       .  S
O1186     Cr1192   1.989       .  S
O1186      C1187   1.266       .  A
C1187      O1188   1.272       .  A
C1187      C1901   1.496       .  S
O1188     Cr1193   2.022       .  S
O1189     Cr1193   1.953       .  S
O1189      C1190   1.254       .  A
C1190      C1954   1.471       .  S
Cr1191     O1194   1.765       .  S
Cr1192     O1194   1.773       .  S
Cr1193     O1194   1.771       .  S
O1195     Cr1213   1.992       .  S
O1195      C1203   1.263       .  A
O1196     Cr1213   1.985       .  S
O1196      C1197   1.263       .  A
C1197      O1198   1.270       .  A
C1197      C1786   1.499       .  S
O1198     Cr1214   2.013       .  S
O1199     Cr1214   1.998       .  S
O1199      C1200   1.263       .  A
C1200      O1201   1.257       .  A
C1200      C4186   1.482   1_455  S
O1201     Cr1215   1.973       .  S
O1202     Cr1215   1.992       .  S
O1202      C1203   1.264       .  A
C1203      C1805   1.483       .  S
O1204     Cr1213   2.002       .  S
O1204      C1212   1.266       .  A
O1205     Cr1213   1.988       .  S
O1205      C1206   1.261       .  A
C1206      O1207   1.261       .  A
C1206      C1829   1.485       .  S
O1207     Cr1214   1.991       .  S
O1208     Cr1214   2.012       .  S
O1208      C1209   1.269       .  A
C1209      O1210   1.266       .  A
C1209      C1853   1.494       .  S
O1210     Cr1215   1.983       .  S
O1211     Cr1215   1.987       .  S
O1211      C1212   1.261       .  A
C1212      C1949   1.486       .  S
Cr1213     O1216   1.766       .  S
Cr1214     O1216   1.769       .  S
Cr1215     O1216   1.761       .  S
O1217     Cr1235   1.955       .  S
O1217      C1225   1.254       .  A
O1218     Cr1235   2.031       .  S
O1218      C1219   1.274       .  A
C1219      O1220   1.264       .  A
C1219      C1906   1.497       .  S
O1220     Cr1236   1.977       .  S
O1221     Cr1236   2.032       .  S
O1221      C1222   1.269       .  A
C1222      O1223   1.253       .  A
O1223     Cr1237   1.956       .  S
O1224     Cr1237   2.023       .  S
O1224      C1225   1.267       .  A
C1225      C1834   1.489       .  S
O1226     Cr1235   2.028       .  S
O1226      C1234   1.271       .  A
O1227     Cr1235   1.955       .  S
O1227      C1228   1.253       .  A
C1228      O1229   1.268       .  A
C1228      C1810   1.480       .  S
O1229     Cr1236   2.027       .  S
O1230     Cr1236   1.986       .  S
O1230      C1231   1.265       .  A
C1231      O1232   1.272       .  A
C1231      C2122   1.499       .  S
O1232     Cr1237   2.022       .  S
O1233     Cr1237   1.942       .  S
O1233      C1234   1.252       .  A
C1234      C1757   1.471       .  S
Cr1235     O1238   1.762       .  S
Cr1236     O1238   1.772       .  S
Cr1237     O1238   1.763       .  S
O1239     Cr1257   1.983       .  S
O1239      C1247   1.256       .  A
O1240     Cr1257   1.981       .  S
O1240      C1241   1.264       .  A
C1241      O1242   1.273       .  A
C1241      C2098   1.487   1_554  S
O1242     Cr1258   2.025       .  S
O1243     Cr1258   1.982       .  S
O1243      C1244   1.260       .  A
C1244      O1245   1.260       .  A
C1244      C1738   1.475       .  S
O1245     Cr1259   1.979       .  S
O1246     Cr1259   1.997       .  S
O1246      C1247   1.260       .  A
C1247      C2237   1.481       .  S
O1248     Cr1257   1.986       .  S
O1248      C1256   1.266       .  A
O1249     Cr1257   1.987       .  S
O1249      C1250   1.256       .  A
C1250      O1251   1.259       .  A
C1250      C2213   1.479       .  S
O1251     Cr1258   1.993       .  S
O1252     Cr1258   2.010       .  S
O1252      C1253   1.268       .  A
C1253      O1254   1.263       .  A
C1253      C1781   1.487       .  S
O1254     Cr1259   1.983       .  S
O1255     Cr1259   1.998       .  S
O1255      C1256   1.269       .  A
C1256      C1762   1.486       .  S
Cr1257     O1260   1.770       .  S
Cr1258     O1260   1.771       .  S
Cr1259     O1260   1.770       .  S
O1261     Cr1279   1.980       .  S
O1261      C1269   1.260       .  A
O1262     Cr1279   1.985       .  S
O1262      C1263   1.266       .  A
C1263      O1264   1.276       .  A
C1263      C2146   1.507       .  S
O1264     Cr1280   2.038       .  S
O1265     Cr1280   1.992       .  S
O1265      C1266   1.262       .  A
C1266      O1267   1.257       .  A
C1266      C1690   1.477       .  S
O1267     Cr1281   1.975       .  S
O1268     Cr1281   1.999       .  S
O1268      C1269   1.263       .  A
C1269      C2074   1.479       .  S
O1270     Cr1279   2.002       .  S
O1270      C1278   1.267       .  A
O1271     Cr1279   1.980       .  S
O1271      C1272   1.255       .  A
C1272      O1273   1.261       .  A
C1272      C2050   1.488       .  S
O1273     Cr1280   1.998       .  S
O1274     Cr1280   2.025       .  S
O1274      C1275   1.273       .  A
C1275      O1276   1.266       .  A
C1275      C1661   1.509       .  S
O1276     Cr1281   1.990       .  S
O1277     Cr1281   1.997       .  S
O1277      C1278   1.263       .  A
C1278      C1714   1.485       .  S
Cr1279     O1282   1.770       .  S
Cr1280     O1282   1.771       .  S
Cr1281     O1282   1.771       .  S
O1283     Cr1301   1.944       .  S
O1283      C1291   1.252       .  A
O1284     Cr1301   2.031       .  S
O1284      C1285   1.273       .  A
C1285      O1286   1.264       .  A
C1285      C1589   1.502       .  S
O1286     Cr1302   1.978       .  S
O1287     Cr1302   2.025       .  S
O1287      C1288   1.269       .  A
C1288      O1289   1.255       .  A
C1288      C3941   1.491       .  S
O1289     Cr1303   1.963       .  S
O1290     Cr1303   2.028       .  S
O1290      C1291   1.269       .  A
C1291      C1618   1.481       .  S
O1292     Cr1301   2.038       .  S
O1292      C1300   1.272       .  A
O1293     Cr1301   1.959       .  S
O1293      C1294   1.254       .  A
C1294      O1295   1.270       .  A
C1294      C1642   1.488       .  S
O1295     Cr1302   2.032       .  S
O1296     Cr1302   1.979       .  S
O1296      C1297   1.264       .  A
C1297      O1298   1.273       .  A
C1297      C2026   1.498       .  S
O1298     Cr1303   2.024       .  S
O1299     Cr1303   1.944       .  S
O1299      C1300   1.252       .  A
C1300      C1709   1.487       .  S
Cr1301     O1304   1.764       .  S
Cr1302     O1304   1.767       .  S
Cr1303     O1304   1.764       .  S
O1305     Cr1323   1.996       .  S
O1305      C1313   1.263       .  A
O1306     Cr1323   1.985       .  S
O1306      C1307   1.265       .  A
C1307      O1308   1.270       .  A
C1307      C1474   1.495       .  S
O1308     Cr1324   2.015       .  S
O1309     Cr1324   1.984       .  S
O1309      C1310   1.259       .  A
C1310      O1311   1.258       .  A
C1310      C3749   1.467       .  S
O1311     Cr1325   1.981       .  S
O1312     Cr1325   1.996       .  S
O1312      C1313   1.264       .  A
C1313      C1541   1.476       .  S
O1314     Cr1323   1.995       .  S
O1314      C1322   1.265       .  A
O1315     Cr1323   1.995       .  S
O1315      C1316   1.261       .  A
C1316      O1317   1.259       .  A
C1316      C1570   1.491       .  S
O1317     Cr1324   1.983       .  S
O1318     Cr1324   2.017       .  S
O1318      C1319   1.271       .  A
C1319      O1320   1.265       .  A
C1319      C1882   1.502       .  S
O1320     Cr1325   1.988       .  S
O1321     Cr1325   1.988       .  S
O1321      C1322   1.262       .  A
C1322      C1522   1.482       .  S
Cr1323     O1326   1.770       .  S
Cr1324     O1326   1.767       .  S
Cr1325     O1326   1.767       .  S
O1327     Cr1345   1.964       .  S
O1327      C1335   1.255       .  A
O1328     Cr1345   2.019       .  S
O1328      C1329   1.270       .  A
C1329      O1330   1.263       .  A
C1329      C1858   1.494       .  S
O1330     Cr1346   1.978       .  S
O1331     Cr1346   2.017       .  S
O1331      C1332   1.269       .  A
C1332      O1333   1.257       .  A
O1333     Cr1347   1.964       .  S
O1334     Cr1347   2.021       .  S
O1334      C1335   1.266       .  A
C1335      C2002   1.477       .  S
O1336     Cr1345   2.025       .  S
O1336      C1344   1.270       .  A
O1337     Cr1345   1.964       .  S
O1337      C1338   1.257       .  A
C1338      O1339   1.268       .  A
C1338      C1978   1.489       .  S
O1339     Cr1346   2.020       .  S
O1340     Cr1346   1.984       .  S
O1340      C1341   1.263       .  A
C1341      O1342   1.269       .  A
C1341      C1450   1.492       .  S
O1342     Cr1347   2.017       .  S
O1343     Cr1347   1.940       .  S
O1343      C1344   1.253       .  A
C1344      C1517   1.465       .  S
Cr1345     O1348   1.766       .  S
Cr1346     O1348   1.769       .  S
Cr1347     O1348   1.767       .  S
O1349     Cr1367   1.994       .  S
O1349      C1357   1.263       .  A
O1350     Cr1367   1.976       .  S
O1350      C1351   1.265       .  A
C1351      O1352   1.276       .  A
C1351      C1666   1.503       .  S
O1352     Cr1368   2.035       .  S
O1353     Cr1368   1.978       .  S
O1353      C1354   1.260       .  A
C1354      O1355   1.258       .  A
O1355     Cr1369   1.974       .  S
O1356     Cr1369   1.990       .  S
O1356      C1357   1.263       .  A
C1357      C1637   1.479       .  S
O1358     Cr1367   1.998       .  S
O1358      C1366   1.264       .  A
O1359     Cr1367   1.984       .  S
O1359      C1360   1.258       .  A
C1360      O1361   1.256       .  A
C1360      C1613   1.485       .  S
O1361     Cr1368   1.983       .  S
O1362     Cr1368   2.020       .  S
O1362      C1363   1.271       .  A
C1363      O1364   1.263       .  A
C1363      C1469   1.502       .  S
O1364     Cr1369   1.984       .  S
O1365     Cr1369   1.988       .  S
O1365      C1366   1.262       .  A
C1366      C1421   1.480       .  S
Cr1367     O1370   1.768       .  S
Cr1368     O1370   1.770       .  S
Cr1369     O1370   1.765       .  S
O1371     Cr1389   1.991       .  S
O1371      C1379   1.261       .  A
O1372     Cr1389   1.981       .  S
O1372      C1373   1.265       .  A
C1373      O1374   1.271       .  A
C1373      C1445   1.500       .  S
O1374     Cr1390   2.021       .  S
O1375     Cr1390   1.990       .  S
O1375      C1376   1.262       .  A
C1376      O1377   1.260       .  A
C1376      C1397   1.474       .  S
O1377     Cr1391   1.980       .  S
O1378     Cr1391   1.998       .  S
O1378      C1379   1.263       .  A
C1379      C1565   1.476       .  S
O1380     Cr1389   1.999       .  S
O1380      C1388   1.265       .  A
O1381     Cr1389   1.990       .  S
O1381      C1382   1.257       .  A
C1382      O1383   1.259       .  A
C1382      C1546   1.475       .  S
O1383     Cr1390   1.988       .  S
O1384     Cr1390   2.006       .  S
O1384      C1385   1.267       .  A
C1385      O1386   1.267       .  A
C1385      C1594   1.504       .  S
O1386     Cr1391   1.998       .  S
O1387     Cr1391   1.984       .  S
O1387      C1388   1.261       .  A
C1388      C1426   1.478       .  S
Cr1389     O1392   1.774       .  S
Cr1390     O1392   1.769       .  S
Cr1391     O1392   1.771       .  S
C1393      C1394   1.410       .  A
C1393      C1398   1.404       .  A
C1393      C1407   1.443       .  S
C1394      C1399   1.478       .  S
C1394      C1395   1.398       .  A
C1395      C1396   1.395       .  A
C1395      H1414   1.084       .  S
C1396      C1397   1.413       .  A
C1396      C1408   1.444       .  S
C1397      C1398   1.404       .  A
C1398      H1413   1.084       .  S
C1399      C1400   1.396       .  A
C1399      C1404   1.411       .  A
C1400      C1401   1.395       .  A
C1400      H1415   1.086       .  S
C1401      C1402   1.421       .  A
C1402      C1403   1.404       .  A
C1403      C1404   1.402       .  A
C1403      H1416   1.085       .  S
C1404      C1406   1.443       .  S
C1405      N1409   1.158       .  T
C1406      N1410   1.157       .  T
C1407      N1412   1.157       .  T
C1408      N1411   1.157       .  T
C1417      C1418   1.411       .  A
C1417      C1422   1.394       .  A
C1417      C1431   1.445       .  S
C1418      C1423   1.488       .  S
C1418      C1419   1.407       .  A
C1419      C1420   1.405       .  A
C1419      H1438   1.080       .  S
C1420      C1421   1.412       .  A
C1420      C1432   1.443       .  S
C1421      C1422   1.405       .  A
C1422      H1437   1.081       .  S
C1423      C1424   1.400       .  A
C1423      C1428   1.415       .  A
C1424      C1425   1.394       .  A
C1424      H1439   1.093       .  S
C1425      C1426   1.415       .  A
C1425      C1429   1.446       .  S
C1426      C1427   1.404       .  A
C1427      C1428   1.404       .  A
C1427      H1440   1.084       .  S
C1428      C1430   1.444       .  S
C1429      N1433   1.157       .  T
C1430      N1434   1.157       .  T
C1431      N1436   1.157       .  T
C1432      N1435   1.157       .  T
C1441      C1442   1.410       .  A
C1441      C1446   1.403       .  A
C1441      C1455   1.444       .  S
C1442      C1447   1.493       .  S
C1442      C1443   1.403       .  A
C1443      C1444   1.405       .  A
C1443      H1462   1.085       .  S
C1444      C1445   1.421       .  A
C1444      C1456   1.444       .  S
C1445      C1446   1.410       .  A
C1446      H1461   1.082       .  S
C1447      C1448   1.403       .  A
C1447      C1452   1.411       .  A
C1448      C1449   1.402       .  A
C1448      H1463   1.085       .  S
C1449      C1450   1.417       .  A
C1449      C1453   1.444       .  S
C1450      C1451   1.408       .  A
C1451      C1452   1.405       .  A
C1451      H1464   1.084       .  S
C1452      C1454   1.444       .  S
C1453      N1457   1.157       .  T
C1454      N1458   1.157       .  T
C1455      N1460   1.157       .  T
C1456      N1459   1.157       .  T
C1465      C1466   1.409       .  A
C1465      C1470   1.403       .  A
C1465      C1479   1.444       .  S
C1466      C1471   1.493       .  S
C1466      C1467   1.403       .  A
C1467      C1468   1.406       .  A
C1467      H1486   1.085       .  S
C1468      C1469   1.422       .  A
C1468      C1480   1.444       .  S
C1469      C1470   1.410       .  A
C1470      H1485   1.084       .  S
C1471      C1472   1.403       .  A
C1471      C3732   1.410       .  A
C1472      C3729   1.405   1_455  A
C1472      H1487   1.086       .  S
C1473      C3728   1.405       .  A
C1473      C1474   1.419       .  A
C1473      C3733   1.445       .  S
C1474      C1475   1.407       .  A
C1475      C1476   1.404       .  A
C1475      H1488   1.085       .  S
C1476      C3727   1.411       .  A
C1476      C1478   1.443       .  S
C1477      C3729   1.444       .  S
C1477      N1481   1.157       .  T
C1478      N1482   1.157       .  T
C1479      N3740   1.157   1_455  T
C1480      N1483   1.158       .  T
N1484      C3735   1.157       .  T
C1489      C1490   1.413       .  A
C1489      C1494   1.401       .  A
C1489      C1503   1.444       .  S
C1490      C1495   1.479       .  S
C1490      C1491   1.399       .  A
C1491      C1492   1.392       .  A
C1491      H1510   1.085       .  S
C1492      C1493   1.411       .  A
C1492      C1504   1.445       .  S
C1493      C3566   1.467   1_455  S
C1493      C1494   1.402       .  A
C1494      H1509   1.085   1_455  S
C1495      C1496   1.399       .  A
C1495      C1500   1.410       .  A
C1496      C1497   1.394       .  A
C1496      H1511   1.085       .  S
C1497      C1498   1.419       .  A
C1498      C1499   1.405       .  A
C1499      C1500   1.399       .  A
C1499      H1512   1.084       .  S
C1500      C1502   1.444       .  S
C1501      N1505   1.157       .  T
C1502      N1506   1.157       .  T
C1503      N1508   1.157       .  T
C1504      N1507   1.157       .  T
C1513      C1514   1.412       .  A
C1513      C1518   1.399       .  A
C1513      C1527   1.442       .  S
C1514      C1519   1.476       .  S
C1514      C1515   1.399       .  A
C1515      C1516   1.396       .  A
C1515      H1534   1.085       .  S
C1516      C1517   1.412       .  A
C1516      C1528   1.445       .  S
C1517      C1518   1.399       .  A
C1518      H1533   1.085       .  S
C1519      C1520   1.404       .  A
C1519      C1524   1.403       .  A
C1520      C1521   1.404       .  A
C1520      H1535   1.084       .  S
C1521      C1522   1.414       .  A
C1521      C1525   1.444       .  S
C1522      C1523   1.409       .  A
C1523      C1524   1.394       .  A
C1523      H1536   1.084       .  S
C1524      C1526   1.445       .  S
C1525      N1529   1.157       .  T
C1526      N1530   1.157       .  T
C1527      N1532   1.157       .  T
C1528      N1531   1.157       .  T
C1537      C1538   1.412       .  A
C1537      C3798   1.402       .  A
C1537      C1551   1.444       .  S
C1538      C1543   1.481       .  S
C1538      C1539   1.401       .  A
C1539      C3796   1.398   1_455  A
C1539      H1558   1.085       .  S
C1540      C3795   1.397       .  A
C1540      C1541   1.414       .  A
C1540      C1552   1.445       .  S
C1541      C1542   1.404       .  A
C1542      C3793   1.404       .  A
C1542      H1557   1.085       .  S
C1543      C1544   1.404       .  A
C1543      C1548   1.409       .  A
C1544      C1545   1.400       .  A
C1544      H1559   1.085       .  S
C1545      C1546   1.411       .  A
C1545      C1549   1.445       .  S
C1546      C1547   1.405       .  A
C1547      C1548   1.399       .  A
C1547      H1560   1.084       .  S
C1548      C1550   1.444       .  S
C1549      N1553   1.157       .  T
C1550      N1554   1.157       .  T
C1551      N1556   1.157       .  T
C1552      N1555   1.157       .  T
C1561      C1562   1.410       .  A
C1561      C1566   1.396       .  A
C1561      C1575   1.445       .  S
C1562      C1567   1.488       .  S
C1562      C1563   1.407       .  A
C1563      C1564   1.406       .  A
C1563      H1582   1.084       .  S
C1564      C1565   1.410       .  A
C1564      C1576   1.442       .  S
C1565      C1566   1.403       .  A
C1566      H1581   1.082       .  S
C1567      C1568   1.404       .  A
C1567      C1572   1.407       .  A
C1568      C1569   1.401       .  A
C1568      H1583   1.085       .  S
C1569      C1570   1.416       .  A
C1569      C1573   1.444       .  S
C1570      C1571   1.411       .  A
C1571      C1572   1.400       .  A
C1571      H1584   1.085       .  S
C1572      C1574   1.444       .  S
C1573      N1577   1.157       .  T
C1574      N1578   1.157       .  T
C1575      N1580   1.157       .  T
C1576      N1579   1.157       .  T
C1585      C1586   1.409       .  A
C1585      C1590   1.402   1_455  A
C1585      C1599   1.444       .  S
C1586      C1591   1.494       .  S
C1586      C3843   1.404   1_455  A
C1587      C3842   1.403       .  A
C1587      C1588   1.409       .  A
C1587      H1606   1.085       .  S
C1588      C1589   1.421       .  A
C1588      C1600   1.443       .  S
C1589      C3846   1.410       .  A
C1590      C3845   1.410       .  A
C1590      H1605   1.085       .  S
C1591      C1592   1.400       .  A
C1591      C1596   1.410       .  A
C1592      C1593   1.403       .  A
C1592      H1607   1.088       .  S
C1593      C1594   1.424       .  A
C1593      C1597   1.444       .  S
C1594      C1595   1.410       .  A
C1595      C1596   1.407       .  A
C1595      H1608   1.089       .  S
C1596      C1598   1.443       .  S
C1597      N1601   1.158       .  T
C1598      N1602   1.157       .  T
C1599      N1604   1.157       .  T
C1600      N1603   1.157       .  T
C1609      C1610   1.403       .  A
C1609      C1614   1.393       .  A
C1609      C1623   1.444       .  S
C1610      C1615   1.476       .  S
C1610      C1611   1.402       .  A
C1611      C1612   1.401       .  A
C1611      H3886   1.086       .  S
C1612      C1613   1.417       .  A
C1612      C1624   1.444       .  S
C1613      C1614   1.410       .  A
C1614      H1629   1.085       .  S
C1615      C1616   1.403       .  A
C1615      C1620   1.406       .  A
C1616      C1617   1.402       .  A
C1616      H1631   1.085       .  S
C1617      C3874   1.413   1_455  A
C1617      C1621   1.443   1_455  S
C1618      C3873   1.413       .  A
C1618      C1619   1.409       .  A
C1619      C3876   1.394       .  A
C1619      H1632   1.085       .  S
C1620      C3875   1.393       .  A
C1620      C3878   1.445       .  S
C1621      N1625   1.157       .  T
C1622      C3876   1.445       .  S
C1622      N1626   1.157       .  T
C1623      N1628   1.157       .  T
C1624      N1627   1.158       .  T
H1630      C3867   1.086       .  S
C1633      C1634   1.414       .  A
C1633      C1647   1.443       .  S
C1634      C1639   1.491       .  S
C1634      C1635   1.400       .  A
C1635      C1636   1.397       .  A
C1635      H1654   1.085       .  S
C1636      C1648   1.446       .  S
C1637      C1638   1.403   1_565  A
C1638      H1653   1.084       .  S
C1639      C1640   1.401       .  A
C1639      C1644   1.413       .  A
C1640      C1641   1.400       .  A
C1640      H1655   1.085       .  S
C1641      C1642   1.418       .  A
C1641      C1645   1.444       .  S
C1642      C1643   1.406       .  A
C1643      C1644   1.404       .  A
C1643      H1656   1.085       .  S
C1644      C1646   1.444       .  S
C1645      N1649   1.157       .  T
C1647      N1652   1.157       .  T
C1648      N1651   1.157       .  T
C1657      C1658   1.414       .  A
C1657      C1662   1.408       .  A
C1658      C1663   1.510       .  S
C1658      C1659   1.407       .  A
C1659      C1660   1.407       .  A
C1659      H1678   1.084       .  S
C1660      C1661   1.421       .  A
C1660      C1672   1.444       .  S
C1661      C1662   1.411       .  A
C1662      H1677   1.083       .  S
C1663      C1668   1.413       .  A
C1664      C1665   1.408   1_545  A
C1664      H1679   1.084       .  S
C1665      C1666   1.418       .  A
C1665      C1669   1.444       .  S
C1667      C1668   1.404       .  A
C1667      H1680   1.084       .  S
C1668      C1670   1.444       .  S
C1669      N1673   1.157       .  T
C1670      N1674   1.157       .  T
C1671      N1676   1.157   1_545  T
C1672      N1675   1.157       .  T
C1681      C1682   1.407       .  A
C1681      C1686   1.399       .  A
C1681      C1695   1.444       .  S
C1682      C1687   1.478       .  S
C1682      C1683   1.399       .  A
C1683      C1684   1.401       .  A
C1683      H1702   1.085       .  S
C1684      C1685   1.421       .  A
C1684      C3952   1.445       .  S
C1685      C3544   1.489   1_455  S
C1685      C1686   1.408       .  A
C1686      H1701   1.084   1_455  S
C1687      C1688   1.397       .  A
C1687      C1692   1.410       .  A
C1688      C1689   1.395       .  A
C1688      H1703   1.085       .  S
C1689      C1690   1.419       .  A
C1689      C1693   1.446       .  S
C1690      C1691   1.403       .  A
C1691      C1692   1.403       .  A
C1691      H1704   1.084       .  S
C1692      C1694   1.443       .  S
C1693      N1697   1.157       .  T
C1694      N1698   1.157       .  T
C1695      N1700   1.157       .  T
C1696      C3940   1.445       .  S
C1696      N1699   1.158       .  T
C1705      C1706   1.414       .  A
C1705      C1710   1.405       .  A
C1705      C1719   1.443       .  S
C1706      C1711   1.487       .  S
C1706      C1707   1.397       .  A
C1707      C1708   1.398       .  A
C1707      H1726   1.086       .  S
C1708      C1709   1.420       .  A
C1708      C1720   1.446       .  S
C1709      C1710   1.404       .  A
C1710      H1725   1.084       .  S
C1711      C1712   1.406       .  A
C1711      C1716   1.407       .  A
C1712      C1713   1.405       .  A
C1712      H1727   1.084       .  S
C1713      C1714   1.412       .  A
C1713      C1717   1.443       .  S
C1714      C1715   1.409       .  A
C1715      C1716   1.400       .  A
C1715      H1728   1.084       .  S
C1716      C1718   1.444       .  S
C1717      N1721   1.157       .  T
C1718      N1722   1.157       .  T
C1719      N1724   1.157       .  T
C1720      N1723   1.157       .  T
C1729      C1730   1.410       .  A
C1729      C1734   1.399       .  A
C1729      C1743   1.444       .  S
C1730      C1735   1.474       .  S
C1730      C1731   1.396       .  A
C1731      C1732   1.395       .  A
C1731      H1750   1.086       .  S
C1732      C1733   1.420       .  A
C1733      C1734   1.402       .  A
C1734      H1749   1.085       .  S
C1735      C1736   1.399       .  A
C1735      C1740   1.408       .  A
C1736      C1737   1.395       .  A
C1736      H1751   1.084       .  S
C1737      C1738   1.415       .  A
C1737      C1741   1.445       .  S
C1738      C1739   1.405       .  A
C1739      C1740   1.399       .  A
C1739      H1752   1.084       .  S
C1740      C1742   1.444       .  S
C1741      N1745   1.157       .  T
C1742      N1746   1.157       .  T
C1743      N1748   1.157       .  T
C1744      N1747   1.158       .  T
C1753      C1754   1.411       .  A
C1753      C1758   1.401       .  A
C1753      C1767   1.444       .  S
C1754      C1759   1.477       .  S
C1754      C1755   1.397       .  A
C1755      C1756   1.396       .  A
C1755      H1774   1.086       .  S
C1756      C1757   1.415       .  A
C1756      C1768   1.444       .  S
C1757      C1758   1.402       .  A
C1758      H1773   1.085       .  S
C1759      C1760   1.402       .  A
C1759      C1764   1.404       .  A
C1760      C1761   1.402       .  A
C1760      H1775   1.085       .  S
C1761      C1762   1.416       .  A
C1761      C1765   1.444       .  S
C1762      C1763   1.410       .  A
C1763      C1764   1.394       .  A
C1763      H1776   1.084       .  S
C1764      C1766   1.445       .  S
C1765      N1769   1.157       .  T
C1766      N1770   1.157       .  T
C1767      N1772   1.157       .  T
C1768      N1771   1.157       .  T
C1777      C1778   1.410       .  A
C1777      C1782   1.404       .  A
C1777      C1791   1.444       .  S
C1778      C1783   1.488       .  S
C1778      C1779   1.402       .  A
C1779      C1780   1.404       .  A
C1779      H1798   1.085       .  S
C1780      C1781   1.414       .  A
C1780      C1792   1.443       .  S
C1781      C1782   1.406       .  A
C1782      H1797   1.085       .  S
C1783      C1784   1.401       .  A
C1783      C1788   1.407       .  A
C1784      C4041   1.405       .  A
C1784      H4055   1.085       .  S
C1785      C4040   1.405       .  A
C1785      C1786   1.421   1_655  A
C1785      C1789   1.444       .  S
C1786      C4043   1.411       .  A
C1787      C4042   1.410       .  A
C1787      C1788   1.403       .  A
C1787      H1800   1.084       .  S
C1788      C1790   1.444       .  S
C1789      N1793   1.157       .  T
C1790      N1794   1.157       .  T
C1791      N1796   1.157       .  T
C1792      N1795   1.157       .  T
H1799      C4040   1.085       .  S
C1801      C4058   1.407       .  A
C1801      C1806   1.395   1_655  A
C1801      C1815   1.445   1_655  S
C1802      C1807   1.484       .  S
C1802      C4057   1.407       .  A
C1802      C1803   1.406       .  A
C1803      C1804   1.404       .  A
C1803      H1822   1.085       .  S
C1804      C4061   1.414       .  A
C1804      C1816   1.444       .  S
C1805      C4060   1.414   1_455  A
C1805      C1806   1.408       .  A
C1806      H1821   1.085       .  S
C1807      C1808   1.405       .  A
C1807      C1812   1.409       .  A
C1808      C1809   1.403       .  A
C1808      H1823   1.084       .  S
C1809      C1810   1.413       .  A
C1809      C1813   1.444       .  S
C1810      C1811   1.406       .  A
C1811      C1812   1.397       .  A
C1811      H1824   1.085       .  S
C1812      C1814   1.445       .  S
C1813      N1817   1.157       .  T
C1814      N1818   1.157       .  T
C1815      N1820   1.157       .  T
C1816      N1819   1.157       .  T
C1825      C1826   1.405       .  A
C1825      C1830   1.397       .  A
C1825      C1839   1.444       .  S
C1826      C1831   1.479       .  S
C1826      C1827   1.402       .  A
C1827      C1828   1.401       .  A
C1827      H1846   1.085       .  S
C1828      C1829   1.416       .  A
C1828      C1840   1.443       .  S
C1829      C1830   1.409       .  A
C1830      H1845   1.085       .  S
C1831      C1836   1.408       .  A
C1832      C1833   1.403       .  A
C1832      H1847   1.085       .  S
C1833      C1834   1.415       .  A
C1833      C1837   1.442       .  S
C1835      C1836   1.396       .  A
C1835      H1848   1.085       .  S
C1836      C1838   1.443       .  S
C1837      N1841   1.157       .  T
C1838      N1842   1.157       .  T
C1839      N1844   1.157       .  T
C1840      N1843   1.157       .  T
C1849      C1850   1.409       .  A
C1849      C1854   1.400       .  A
C1849      C1863   1.444       .  S
C1850      C1855   1.488       .  S
C1850      C1851   1.401       .  A
C1851      C1852   1.404       .  A
C1851      H1870   1.084       .  S
C1852      C1853   1.421       .  A
C1852      C1864   1.445       .  S
C1853      C1854   1.408       .  A
C1854      H1869   1.084       .  S
C1855      C1856   1.401   1_565  A
C1855      C1860   1.408       .  A
C1856      H1871   1.085       .  S
C1857      C1858   1.418       .  A
C1857      C1861   1.444       .  S
C1858      C1859   1.408       .  A
C1859      H1872   1.085       .  S
C1860      C1862   1.445       .  S
C1861      N1865   1.157       .  T
C1862      N1866   1.157       .  T
C1863      N1868   1.157       .  T
C1864      N1867   1.158       .  T
C1873      C1874   1.408       .  A
C1873      C1878   1.407       .  A
C1873      C1887   1.443       .  S
C1874      C1879   1.492       .  S
C1874      C1875   1.401       .  A
C1875      C1876   1.405       .  A
C1875      H1894   1.085       .  S
C1876      C1877   1.423       .  A
C1876      C1888   1.444       .  S
C1877      C1878   1.412       .  A
C1878      H1893   1.084       .  S
C1879      C1880   1.403       .  A
C1879      C1884   1.408       .  A
C1880      C1881   1.408       .  A
C1880      H1895   1.085       .  S
C1881      C1882   1.420       .  A
C1881      C1885   1.443       .  S
C1882      C1883   1.411       .  A
C1883      C1884   1.403       .  A
C1883      H1896   1.085       .  S
C1884      C1886   1.443       .  S
C1885      N1889   1.157       .  T
C1886      N1890   1.157       .  T
C1887      N1892   1.157       .  T
C1888      N1891   1.157       .  T
C1897      C1898   1.410       .  A
C1897      C1902   1.407       .  A
C1897      C1911   1.443   1_565  S
C1898      C1903   1.492       .  S
C1898      C1899   1.402       .  A
C1899      C1900   1.405       .  A
C1899      H1918   1.085       .  S
C1900      C1901   1.419       .  A
C1900      C1912   1.444       .  S
C1901      C1902   1.409       .  A
C1902      H1917   1.084       .  S
C1903      C1904   1.401       .  A
C1903      C1908   1.410       .  A
C1904      H1919   1.085       .  S
C1905      C1906   1.417       .  A
C1905      C1909   1.444       .  S
C1906      C1907   1.409       .  A
C1907      H1920   1.084       .  S
C1908      C1910   1.443       .  S
C1909      N1913   1.157       .  T
C1910      N1914   1.157       .  T
C1912      N1915   1.157       .  T
C1921      C1922   1.410       .  A
C1921      C1926   1.396       .  A
C1921      C1935   1.445       .  S
C1922      C1927   1.480       .  S
C1922      C1923   1.402       .  A
C1923      C1924   1.398       .  A
C1923      H1942   1.084       .  S
C1924      C1925   1.416       .  A
C1924      C1936   1.444       .  S
C1925      C1926   1.406       .  A
C1926      H1941   1.084       .  S
C1927      C1928   1.396       .  A
C1927      C1932   1.412       .  A
C1928      C1929   1.392       .  A
C1928      H1943   1.085       .  S
C1929      C1930   1.421       .  A
C1929      C1933   1.446       .  S
C1930      C3456   1.482       .  S
C1930      C1931   1.404       .  A
C1931      C1932   1.402       .  A
C1931      H1944   1.084       .  S
C1932      C1934   1.444       .  S
C1933      N1937   1.157       .  T
C1934      N1938   1.157       .  T
C1935      N1940   1.157       .  T
C1936      N1939   1.157       .  T
C1945      C1946   1.408       .  A
C1945      C1950   1.396       .  A
C1945      C1959   1.445       .  S
C1946      C1951   1.486       .  S
C1946      C1947   1.406       .  A
C1947      C1948   1.406       .  A
C1947      H1966   1.085       .  S
C1948      C1949   1.412       .  A
C1948      C1960   1.442       .  S
C1949      C1950   1.408       .  A
C1950      H1965   1.085       .  S
C1951      C1952   1.403       .  A
C1951      C1956   1.412       .  A
C1952      C1953   1.400       .  A
C1952      H1967   1.085       .  S
C1953      C1954   1.409       .  A
C1953      C1957   1.444       .  S
C1954      C1955   1.403       .  A
C1955      C1956   1.403       .  A
C1955      H1968   1.085       .  S
C1956      C1958   1.444       .  S
C1957      N1961   1.157       .  T
C1958      N1962   1.157       .  T
C1959      N1964   1.157       .  T
C1960      N1963   1.157       .  T
C1969      C1970   1.407       .  A
C1969      C1974   1.393       .  A
C1969      C1983   1.446       .  S
C1970      C1975   1.488       .  S
C1970      C1971   1.407       .  A
C1971      C1972   1.409       .  A
C1971      H1990   1.084       .  S
C1972      C1973   1.416       .  A
C1972      C1984   1.443       .  S
C1973      C1974   1.409       .  A
C1974      H1989   1.084       .  S
C1975      C1976   1.405       .  A
C1975      C1980   1.408       .  A
C1976      C1977   1.401       .  A
C1976      H1991   1.084       .  S
C1977      C1978   1.415       .  A
C1977      C1981   1.444       .  S
C1978      C1979   1.410       .  A
C1979      C1980   1.401       .  A
C1979      H1992   1.084       .  S
C1980      C1982   1.444       .  S
C1981      N1985   1.157       .  T
C1982      N1986   1.157       .  T
C1983      N1988   1.157       .  T
C1984      N1987   1.157       .  T
C1993      C1994   1.411       .  A
C1993      C1998   1.401       .  A
C1993      C2007   1.443       .  S
C1994      C1999   1.476       .  S
C1994      C1995   1.398       .  A
C1995      C1996   1.396       .  A
C1995      H2014   1.085       .  S
C1996      C1997   1.414       .  A
C1996      C2008   1.445       .  S
C1997      C1998   1.401       .  A
C1998      H2013   1.085       .  S
C1999      C2000   1.397       .  A
C2000      C2001   1.395       .  A
C2000      H2015   1.085       .  S
C2001      C2005   1.445       .  S
C2002      C2003   1.406       .  A
C2003      C2004   1.405       .  A
C2003      H2016   1.084       .  S
C2004      C2006   1.443       .  S
C2005      N2009   1.157       .  T
C2006      N2010   1.157       .  T
C2007      N2012   1.157   1_565  T
C2008      N2011   1.157       .  T
C2017      C2018   1.412       .  A
C2017      C2031   1.444       .  S
C2018      C2023   1.497       .  S
C2018      C2019   1.405       .  A
C2019      H2038   1.085       .  S
C2020      C2021   1.420       .  A
C2020      C2032   1.443       .  S
C2021      C2022   1.411       .  A
C2022      H2037   1.085       .  S
C2023      C2024   1.403       .  A
C2023      C2028   1.412       .  A
C2024      C2025   1.405       .  A
C2024      H2039   1.085       .  S
C2025      C2026   1.420       .  A
C2025      C2029   1.444       .  S
C2026      C2027   1.408       .  A
C2027      C2028   1.403       .  A
C2027      H2040   1.085       .  S
C2028      C2030   1.444       .  S
C2029      N2033   1.157       .  T
C2030      N2034   1.157       .  T
C2031      N2036   1.157       .  T
C2032      N2035   1.157       .  T
C2041      C2042   1.410       .  A
C2041      C2046   1.403       .  A
C2041      C2055   1.443       .  S
C2042      C2047   1.481       .  S
C2043      C2044   1.396       .  A
C2043      H2062   1.085       .  S
C2044      C2045   1.413   1_545  A
C2044      C2056   1.445       .  S
C2046      H2061   1.084       .  S
C2047      C2048   1.397       .  A
C2047      C2052   1.410       .  A
C2048      C2049   1.396       .  A
C2048      H2063   1.086       .  S
C2049      C2050   1.422       .  A
C2049      C2053   1.446       .  S
C2050      C2051   1.406       .  A
C2051      C2052   1.403       .  A
C2051      H2064   1.085       .  S
C2053      N2057   1.158       .  T
C2054      N2058   1.157   1_545  T
C2055      N2060   1.157       .  T
C2056      N2059   1.157       .  T
C2065      C2066   1.409       .  A
C2065      C2070   1.396       .  A
C2065      C2079   1.444       .  S
C2066      C2071   1.480       .  S
C2066      C2067   1.405       .  A
C2067      C2068   1.399       .  A
C2067      H2086   1.085       .  S
C2068      C2069   1.411       .  A
C2068      C2080   1.444       .  S
C2069      C2070   1.405       .  A
C2070      H2085   1.084       .  S
C2071      C2072   1.407       .  A
C2071      C2076   1.406       .  A
C2072      C2073   1.406       .  A
C2072      H2087   1.084       .  S
C2073      C2074   1.413       .  A
C2073      C2077   1.444       .  S
C2074      C2075   1.406       .  A
C2075      C2076   1.390       .  A
C2075      H2088   1.085       .  S
C2076      C2078   1.446       .  S
C2077      N2081   1.158       .  T
C2078      N2082   1.157       .  T
C2079      N2084   1.157       .  T
C2080      N2083   1.157       .  T
C2089      C2090   1.408       .  A
C2089      C2094   1.403       .  A
C2089      C2103   1.444       .  S
C2090      C2095   1.489       .  S
C2090      C2091   1.402       .  A
C2091      C2092   1.404       .  A
C2091      H2110   1.085       .  S
C2092      C2093   1.419       .  A
C2092      C2104   1.444       .  S
C2093      C2094   1.410       .  A
C2094      H2109   1.085       .  S
C2095      C2096   1.403       .  A
C2095      C2100   1.410       .  A
C2096      C2097   1.405       .  A
C2096      H2111   1.084       .  S
C2097      C2098   1.416       .  A
C2097      C2101   1.444   1_556  S
C2098      C2099   1.405       .  A
C2099      C2100   1.403       .  A
C2099      H2112   1.084       .  S
C2100      C2102   1.443       .  S
C2101      N2105   1.157       .  T
C2102      N2106   1.157       .  T
C2103      N2108   1.157       .  T
C2104      N2107   1.157       .  T
C2113      C4370   1.410       .  A
C2113      C2118   1.403   1_655  A
C2113      C2127   1.444       .  S
C2114      C2119   1.497       .  S
C2114      C4369   1.411       .  A
C2114      C2115   1.404       .  A
C2115      C2116   1.408       .  A
C2115      H2134   1.085       .  S
C2116      C4373   1.421       .  A
C2116      C2128   1.443       .  S
C2117      C4372   1.422   1_455  A
C2117      C2118   1.411       .  A
C2118      H2133   1.085       .  S
C2119      C2120   1.404       .  A
C2119      C2124   1.411       .  A
C2120      C2121   1.407       .  A
C2120      H2135   1.085       .  S
C2121      C2122   1.419       .  A
C2121      C2125   1.444       .  S
C2122      C2123   1.409       .  A
C2123      C2124   1.403       .  A
C2123      H2136   1.085       .  S
C2124      C2126   1.444       .  S
C2125      N2129   1.158       .  T
C2126      N2130   1.157       .  T
C2127      N2132   1.157       .  T
C2128      N2131   1.157       .  T
C2137      C2138   1.414       .  A
C2137      C2142   1.409       .  A
C2137      C2151   1.444       .  S
C2138      C2143   1.509       .  S
C2138      C2139   1.407       .  A
C2139      C2140   1.410       .  A
C2139      H2158   1.084       .  S
C2140      C2141   1.420       .  A
C2140      C2152   1.444       .  S
C2141      C2142   1.411       .  A
C2142      H2157   1.084       .  S
C2143      C2144   1.408       .  A
C2143      C2148   1.413       .  A
C2144      C2145   1.411       .  A
C2144      H2159   1.083       .  S
C2145      C2146   1.418       .  A
C2145      C2149   1.443       .  S
C2146      C2147   1.410       .  A
C2147      C2148   1.408       .  A
C2147      H2160   1.084       .  S
C2148      C2150   1.444       .  S
C2149      N2153   1.157       .  T
C2150      N2154   1.157       .  T
C2151      N2156   1.157       .  T
C2152      N2155   1.157       .  T
C2161      C2162   1.408       .  A
C2161      C2166   1.395       .  A
C2161      C2175   1.445       .  S
C2162      C2167   1.477       .  S
C2162      C2163   1.399       .  A
C2163      C2164   1.399       .  A
C2163      H2182   1.085       .  S
C2164      C2165   1.420       .  A
C2164      C2176   1.444       .  S
C2165      C2166   1.407       .  A
C2166      H2181   1.084       .  S
C2167      C2168   1.404       .  A
C2167      C2172   1.404       .  A
C2168      C2169   1.405       .  A
C2168      H2183   1.085       .  S
C2169      C2170   1.417       .  A
C2169      C2173   1.443       .  S
C2170      C3390   1.488       .  S
C2170      C2171   1.411       .  A
C2171      C2172   1.391       .  A
C2171      H4440   1.084       .  S
C2172      C2174   1.446       .  S
C2173      N2177   1.157       .  T
C2174      N2178   1.157       .  T
C2175      N2180   1.157       .  T
H2184      C4427   1.084       .  S
C2185      C2186   1.406       .  A
C2185      C2190   1.396       .  A
C2185      C2199   1.444       .  S
C2186      C2191   1.481       .  S
C2186      C2187   1.405       .  A
C2187      C2188   1.403       .  A
C2187      H2206   1.084       .  S
C2188      C2189   1.411       .  A
C2188      C2200   1.443       .  S
C2189      C2190   1.407       .  A
C2190      H2205   1.085       .  S
C2191      C2192   1.396       .  A
C2191      C2196   1.412       .  A
C2192      C2193   1.396       .  A
C2192      H2207   1.087       .  S
C2193      C2194   1.422       .  A
C2193      C2197   1.446       .  S
C2194      C2195   1.405       .  A
C2195      C2196   1.403       .  A
C2195      H2208   1.086       .  S
C2196      C2198   1.444       .  S
C2197      N2201   1.157       .  T
C2198      N2202   1.157       .  T
C2199      N2204   1.157       .  T
C2200      N2203   1.157       .  T
C2209      C2210   1.411   1_554  A
C2209      C2214   1.401       .  A
C2209      C2223   1.443       .  S
C2210      C2215   1.480       .  S
C2210      C2211   1.398       .  A
C2211      C2212   1.398       .  A
C2211      H2230   1.085       .  S
C2212      C2213   1.416   1_556  A
C2212      C2224   1.445       .  S
C2213      C2214   1.403       .  A
C2214      H2229   1.084       .  S
C2215      C2216   1.405       .  A
C2215      C4476   1.406       .  A
C2216      C2217   1.405       .  A
C2216      H2231   1.085       .  S
C2217      C4474   1.411       .  A
C2217      C2221   1.444       .  S
C2218      C4473   1.411       .  A
C2218      C2219   1.405   1_655  A
C2219      C2220   1.397   1_455  A
C2219      H2232   1.085       .  S
C2220      C4471   1.406       .  A
C2220      C2222   1.444   1_655  S
C2221      N2225   1.157       .  T
C2222      N2226   1.157       .  T
C2223      N2228   1.157       .  T
C2224      N2227   1.157       .  T
C2233      C2234   1.412       .  A
C2233      C2238   1.404       .  A
C2233      C2247   1.443       .  S
C2234      C2239   1.483       .  S
C2234      C2235   1.399       .  A
C2235      C2236   1.394       .  A
C2235      H2254   1.086       .  S
C2236      C2237   1.418       .  A
C2236      C2248   1.446       .  S
C2237      C2238   1.405       .  A
C2238      H2253   1.085       .  S
C2239      C2240   1.399       .  A
C2239      C2244   1.412       .  A
C2240      C2241   1.398       .  A
C2240      H2255   1.085       .  S
C2241      C2242   1.419       .  A
C2241      C2245   1.445       .  S
C2242      C2243   1.403       .  A
C2243      C2244   1.401       .  A
C2243      H2256   1.085       .  S
C2244      C2246   1.443       .  S
C2245      N2249   1.157       .  T
C2246      N2250   1.157       .  T
C2247      N2252   1.157       .  T
C2248      N2251   1.157   1_554  T
O2257     Cr2275   1.987       .  S
O2257      C2265   1.261       .  A
O2258     Cr2275   1.980       .  S
O2258      C2259   1.264   1_556  A
C2259      O2260   1.272   1_554  A
C2259      C3245   1.499       .  S
O2260     Cr2276   2.021       .  S
O2261     Cr2276   1.993       .  S
O2261      C2262   1.262       .  A
C2262      O2263   1.257       .  A
O2263     Cr2277   1.968       .  S
O2264     Cr2277   2.007       .  S
O2264      C2265   1.265       .  A
C2265      C3346   1.485       .  S
O2266     Cr2275   1.995       .  S
O2266      C2274   1.264       .  A
O2267     Cr2275   1.979       .  S
O2267      C2268   1.256       .  A
C2268      O2269   1.261       .  A
C2268      C3370   1.478   1_556  S
O2269     Cr2276   1.993       .  S
O2270     Cr2276   2.020       .  S
O2270      C2271   1.272       .  A
C2271      O2272   1.267       .  A
C2271      C3269   1.508       .  S
O2272     Cr2277   1.995       .  S
O2273     Cr2277   1.985       .  S
O2273      C2274   1.260       .  A
C2274      C3322   1.475       .  S
Cr2275     O2278   1.769       .  S
Cr2276     O2278   1.772       .  S
Cr2277     O2278   1.768       .  S
O2279     Cr2297   1.956       .  S
O2279      C2287   1.253       .  A
O2280     Cr2297   2.027       .  S
O2280      C2281   1.272       .  A
C2281      O2282   1.263       .  A
C2281      C3149   1.498       .  S
O2282     Cr2298   1.972       .  S
O2283     Cr2298   2.011       .  S
O2283      C2284   1.266       .  A
C2284      O2285   1.257       .  A
C2284      C4421   1.481       .  S
O2285     Cr2299   1.961       .  S
O2286     Cr2299   2.020       .  S
O2286      C2287   1.267       .  A
C2287      C3173   1.476       .  S
O2288     Cr2297   2.030       .  S
O2288      C2296   1.271       .  A
O2289     Cr2297   1.955       .  S
O2289      C2290   1.253       .  A
C2290      O2291   1.265       .  A
C2290      C3197   1.473       .  S
O2291     Cr2298   2.013       .  S
O2292     Cr2298   1.984       .  S
O2292      C2293   1.264       .  A
C2293      O2294   1.270       .  A
C2293      C3221   1.494       .  S
O2294     Cr2299   2.016       .  S
O2295     Cr2299   1.941       .  S
O2295      C2296   1.254       .  A
C2296      C3317   1.477       .  S
Cr2297     O2300   1.763       .  S
Cr2298     O2300   1.767       .  S
Cr2299     O2300   1.761       .  S
O2301     Cr2319   1.956       .  S
O2301      C2309   1.254       .  A
O2302     Cr2319   2.023       .  S
O2302      C2303   1.271       .  A
C2303      O2304   1.264       .  A
C2303      C3005   1.503       .  S
O2304     Cr2320   1.984       .  S
O2305     Cr2320   2.015       .  S
O2305      C2306   1.266       .  A
C2306      O2307   1.253       .  A
C2306      C3053   1.485       .  S
O2307     Cr2321   1.957       .  S
O2308     Cr2321   2.030       .  S
O2308      C2309   1.268       .  A
C2309      C3101   1.488       .  S
O2310     Cr2319   2.030       .  S
O2310      C2318   1.270       .  A
O2311     Cr2319   1.958       .  S
O2311      C2312   1.256       .  A
C2312      O2313   1.267       .  A
C2312      C3125   1.482       .  S
O2313     Cr2320   2.025       .  S
O2314     Cr2320   1.990       .  S
O2314      C2315   1.268       .  A
C2315      O2316   1.273       .  A
C2315      C3029   1.508       .  S
O2316     Cr2321   2.028       .  S
O2317     Cr2321   1.950       .  S
O2317      C2318   1.255       .  A
C2318      C3082   1.479       .  S
Cr2319     O2322   1.766       .  S
Cr2320     O2322   1.775       .  S
Cr2321     O2322   1.766       .  S
O2323     Cr2341   1.995       .  S
O2323      C2331   1.264       .  A
O2324     Cr2341   1.986       .  S
O2324      C2325   1.264       .  A
C2325      O2326   1.270       .  A
C2325      C2914   1.501       .  S
O2326     Cr2342   2.015       .  S
O2327     Cr2342   1.985       .  S
O2327      C2328   1.259       .  A
C2328      O2329   1.257       .  A
O2329     Cr2343   1.974       .  S
O2330     Cr2343   1.993       .  S
O2330      C2331   1.264       .  A
C2331      C2933   1.481       .  S
O2332     Cr2341   2.006       .  S
O2332      C2340   1.267       .  A
O2333     Cr2341   1.990       .  S
O2333      C2334   1.262       .  A
C2334      O2335   1.258       .  A
C2334      C2957   1.486       .  S
O2335     Cr2342   1.980       .  S
O2336     Cr2342   2.017       .  S
O2336      C2337   1.270       .  A
C2337      O2338   1.266       .  A
C2337      C2981   1.499       .  S
O2338     Cr2343   1.982       .  S
O2339     Cr2343   1.986       .  S
O2339      C2340   1.262       .  A
C2340      C3077   1.489       .  S
Cr2341     O2344   1.766       .  S
Cr2342     O2344   1.770       .  S
Cr2343     O2344   1.762       .  S
O2345     Cr2363   1.957       .  S
O2345      C2353   1.255       .  A
O2346     Cr2363   2.030       .  S
O2346      C2347   1.274       .  A
C2347      O2348   1.263       .  A
C2347      C3034   1.496       .  S
O2348     Cr2364   1.973       .  S
O2349     Cr2364   2.029       .  S
O2349      C2350   1.270       .  A
C2350      O2351   1.252       .  A
C2350      C3989   1.477   1_545  S
O2351     Cr2365   1.950       .  S
O2352     Cr2365   2.020       .  S
O2352      C2353   1.266       .  A
C2353      C2962   1.477       .  S
O2354     Cr2363   2.033       .  S
O2354      C2362   1.271       .  A
O2355     Cr2363   1.960       .  S
O2355      C2356   1.255       .  A
C2356      O2357   1.267       .  A
C2356      C2938   1.477       .  S
O2357     Cr2364   2.023       .  S
O2358     Cr2364   1.985       .  S
O2358      C2359   1.263       .  A
C2359      O2360   1.269       .  A
C2359      C3250   1.486       .  S
O2360     Cr2365   2.017       .  S
O2361     Cr2365   1.932       .  S
O2361      C2362   1.251       .  A
C2362      C2885   1.468       .  S
Cr2363     O2366   1.759       .  S
Cr2364     O2366   1.767       .  S
Cr2365     O2366   1.759       .  S
O2367     Cr2385   1.980       .  S
O2367      C2375   1.255       .  A
O2368     Cr2385   1.977       .  S
O2368      C2369   1.264       .  A
C2369      O2370   1.273       .  A
C2369      C3226   1.486   1_554  S
O2370     Cr2386   2.023       .  S
O2371     Cr2386   1.989       .  S
O2371      C2372   1.262       .  A
C2372      O2373   1.261       .  A
C2372      C2866   1.481       .  S
O2373     Cr2387   1.982       .  S
O2374     Cr2387   2.001       .  S
O2374      C2375   1.261       .  A
C2375      C3365   1.481       .  S
O2376     Cr2385   1.982       .  S
O2376      C2384   1.266       .  A
O2377     Cr2385   1.987       .  S
O2377      C2378   1.256       .  A
C2378      O2379   1.259       .  A
C2378      C3341   1.482       .  S
O2379     Cr2386   1.999       .  S
O2380     Cr2386   2.006       .  S
O2380      C2381   1.267       .  A
C2381      O2382   1.263       .  A
C2381      C2909   1.488       .  S
O2382     Cr2387   1.983       .  S
O2383     Cr2387   1.999       .  S
O2383      C2384   1.269       .  A
C2384      C2890   1.482       .  S
Cr2385     O2388   1.770       .  S
Cr2386     O2388   1.772       .  S
Cr2387     O2388   1.771       .  S
O2389     Cr2407   1.991       .  S
O2389      C2397   1.263       .  A
O2390     Cr2407   1.976       .  S
O2390      C2391   1.264       .  A
C2391      O2392   1.275       .  A
C2391      C3274   1.505       .  S
O2392     Cr2408   2.037       .  S
O2393     Cr2408   2.001       .  S
O2393      C2394   1.264       .  A
C2394      O2395   1.256       .  A
C2394      C2818   1.492       .  S
O2395     Cr2409   1.975       .  S
O2396     Cr2409   1.989       .  S
O2396      C2397   1.263       .  A
C2397      C3202   1.479       .  S
O2398     Cr2407   1.994       .  S
O2398      C2406   1.263       .  A
O2399     Cr2407   1.986       .  S
O2399      C2400   1.257       .  A
C2400      O2401   1.262       .  A
C2400      C3178   1.492       .  S
O2401     Cr2408   1.999       .  S
O2402     Cr2408   2.025       .  S
O2402      C2403   1.274       .  A
C2403      O2404   1.266       .  A
C2403      C2789   1.506       .  S
O2404     Cr2409   1.987       .  S
O2405     Cr2409   1.990       .  S
O2405      C2406   1.260       .  A
C2406      C2842   1.475       .  S
Cr2407     O2410   1.772       .  S
Cr2408     O2410   1.771       .  S
Cr2409     O2410   1.772       .  S
O2411     Cr2429   1.940       .  S
O2411      C2419   1.252       .  A
O2412     Cr2429   2.032       .  S
O2412      C2413   1.273       .  A
C2413      O2414   1.263       .  A
C2413      C2717   1.505       .  S
O2414     Cr2430   1.977       .  S
O2415     Cr2430   2.028       .  S
O2415      C2416   1.270       .  A
C2416      O2417   1.256       .  A
O2417     Cr2431   1.962       .  S
O2418     Cr2431   2.029       .  S
O2418      C2419   1.268       .  A
C2419      C2746   1.477       .  S
O2420     Cr2429   2.042       .  S
O2420      C2428   1.272       .  A
O2421     Cr2429   1.955       .  S
O2421      C2422   1.254       .  A
C2422      O2423   1.271       .  A
C2422      C2770   1.486       .  S
O2423     Cr2430   2.034       .  S
O2424     Cr2430   1.983       .  S
O2424      C2425   1.264       .  A
C2425      O2426   1.271       .  A
C2425      C3154   1.493       .  S
O2426     Cr2431   2.019       .  S
O2427     Cr2431   1.937       .  S
O2427      C2428   1.251       .  A
C2428      C2837   1.480       .  S
Cr2429     O2432   1.765       .  S
Cr2430     O2432   1.765       .  S
Cr2431     O2432   1.761       .  S
O2433     Cr2451   1.994       .  S
O2433      C2441   1.262       .  A
O2434     Cr2451   1.987       .  S
O2434      C2435   1.267       .  A
C2435      O2436   1.274       .  A
C2435      C2602   1.502       .  S
O2436     Cr2452   2.024       .  S
O2437     Cr2452   1.989       .  S
O2437      C2438   1.261       .  A
C2438      O2439   1.257       .  A
O2439     Cr2453   1.978       .  S
O2440     Cr2453   1.998       .  S
O2440      C2441   1.264       .  A
C2441      C2669   1.474       .  S
O2442     Cr2451   2.006       .  S
O2442      C2450   1.266       .  A
O2443     Cr2451   1.987       .  S
O2443      C2444   1.258       .  A
C2444      O2445   1.258       .  A
C2444      C2698   1.490       .  S
O2445     Cr2452   1.989       .  S
O2446     Cr2452   2.016       .  S
O2446      C2447   1.271       .  A
C2447      O2448   1.265       .  A
C2447      C3010   1.503       .  S
O2448     Cr2453   1.988       .  S
O2449     Cr2453   1.985       .  S
O2449      C2450   1.261       .  A
C2450      C2650   1.485       .  S
Cr2451     O2454   1.771       .  S
Cr2452     O2454   1.768       .  S
Cr2453     O2454   1.766       .  S
O2455     Cr2473   1.955       .  S
O2455      C2463   1.253       .  A
O2456     Cr2473   2.018       .  S
O2456      C2457   1.271       .  A
C2457      O2458   1.265       .  A
C2457      C2986   1.497       .  S
O2458     Cr2474   1.979       .  S
O2459     Cr2474   2.016       .  S
O2459      C2460   1.266       .  A
C2460      O2461   1.255       .  A
C2460      C3754   1.473   1_545  S
O2461     Cr2475   1.962       .  S
O2462     Cr2475   2.023       .  S
O2462      C2463   1.267       .  A
C2463      C3130   1.486   1_545  S
O2464     Cr2473   2.027       .  S
O2464      C2472   1.270       .  A
O2465     Cr2473   1.957       .  S
O2465      C2466   1.254       .  A
C2466      O2467   1.266       .  A
C2466      C3106   1.478       .  S
O2467     Cr2474   2.020       .  S
O2468     Cr2474   1.978       .  S
O2468      C2469   1.264       .  A
C2469      O2470   1.271       .  A
C2469      C2578   1.495       .  S
O2470     Cr2475   2.019       .  S
O2471     Cr2475   1.943       .  S
O2471      C2472   1.253       .  A
C2472      C2645   1.477       .  S
Cr2473     O2476   1.762       .  S
Cr2474     O2476   1.770       .  S
Cr2475     O2476   1.765       .  S
O2477     Cr2495   1.994       .  S
O2477      C2485   1.263       .  A
O2478     Cr2495   1.968       .  S
O2478      C2479   1.264       .  A
C2479      O2480   1.278       .  A
C2479      C2794   1.507       .  S
O2480     Cr2496   2.044       .  S
O2481     Cr2496   1.986       .  S
O2481      C2482   1.260       .  A
C2482      O2483   1.259       .  A
C2482      C3658   1.482       .  S
O2483     Cr2497   1.981       .  S
O2484     Cr2497   1.999       .  S
O2484      C2485   1.266       .  A
C2485      C2765   1.486       .  S
O2486     Cr2495   1.992       .  S
O2486      C2494   1.264       .  A
O2487     Cr2495   1.985       .  S
O2487      C2488   1.257       .  A
C2488      O2489   1.256       .  A
C2488      C2741   1.489       .  S
O2489     Cr2496   1.986       .  S
O2490     Cr2496   2.028       .  S
O2490      C2491   1.274       .  A
C2491      O2492   1.264       .  A
C2491      C2597   1.506       .  S
O2492     Cr2497   1.983       .  S
O2493     Cr2497   1.992       .  S
O2493      C2494   1.263       .  A
C2494      C2549   1.482       .  S
Cr2495     O2498   1.770       .  S
Cr2496     O2498   1.774       .  S
Cr2497     O2498   1.768       .  S
O2499     Cr2517   1.988       .  S
O2499      C2507   1.261       .  A
O2500     Cr2517   1.979       .  S
O2500      C2501   1.263       .  A
C2501      O2502   1.268       .  A
C2501      C2573   1.496       .  S
O2502     Cr2518   2.012       .  S
O2503     Cr2518   1.987       .  S
O2503      C2504   1.262       .  A
C2504      O2505   1.260       .  A
C2504      C2525   1.474       .  S
O2505     Cr2519   1.980       .  S
O2506     Cr2519   1.998       .  S
O2506      C2507   1.263       .  A
C2507      C2693   1.475       .  S
O2508     Cr2517   1.989       .  S
O2508      C2516   1.263       .  A
O2509     Cr2517   1.987       .  S
O2509      C2510   1.259       .  A
C2510      O2511   1.260       .  A
C2510      C2674   1.483       .  S
O2511     Cr2518   1.986       .  S
O2512     Cr2518   2.004       .  S
O2512      C2513   1.266       .  A
C2513      O2514   1.267       .  A
C2513      C2722   1.498       .  S
O2514     Cr2519   1.999       .  S
O2515     Cr2519   1.989       .  S
O2515      C2516   1.262       .  A
C2516      C2554   1.477       .  S
Cr2517     O2520   1.770       .  S
Cr2518     O2520   1.768       .  S
Cr2519     O2520   1.770       .  S
C2521      C2522   1.411       .  A
C2521      C2526   1.402       .  A
C2521      C2535   1.444       .  S
C2522      C2527   1.476       .  S
C2522      C2523   1.398       .  A
C2523      C2524   1.393       .  A
C2523      H2542   1.085       .  S
C2524      C2525   1.414       .  A
C2524      C2536   1.445       .  S
C2525      C2526   1.404       .  A
C2526      H2541   1.084       .  S
C2527      C2528   1.396       .  A
C2527      C2532   1.411       .  A
C2528      C2529   1.393       .  A
C2528      H2543   1.086       .  S
C2529      C2530   1.421       .  A
C2529      C3661   1.446   1_545  S
C2530      C3610   1.479   1_545  S
C2530      C2531   1.404       .  A
C2531      C2532   1.399       .  A
C2531      H2544   1.086       .  S
C2532      C2534   1.444       .  S
C2533      C3657   1.446       .  S
C2533      N2537   1.157       .  T
C2534      N2538   1.157       .  T
C2535      N2540   1.157       .  T
C2536      N2539   1.157       .  T
C2545      C2546   1.406       .  A
C2545      C2550   1.395       .  A
C2545      C2559   1.445       .  S
C2546      C2551   1.480       .  S
C2546      C2547   1.405       .  A
C2547      C2548   1.403       .  A
C2547      H2566   1.081       .  S
C2548      C2549   1.413       .  A
C2548      C2560   1.444       .  S
C2549      C2550   1.408       .  A
C2550      H2565   1.081       .  S
C2551      C2552   1.399       .  A
C2551      C2556   1.411       .  A
C2552      C2553   1.395       .  A
C2552      H2567   1.095       .  S
C2553      C2554   1.416       .  A
C2553      C2557   1.445       .  S
C2554      C2555   1.404       .  A
C2555      C2556   1.400       .  A
C2555      H2568   1.085       .  S
C2556      C2558   1.444       .  S
C2557      N2561   1.158       .  T
C2558      N2562   1.157       .  T
C2559      N2564   1.157       .  T
C2560      N2563   1.157       .  T
C2569      C2570   1.407       .  A
C2569      C2574   1.402       .  A
C2569      C2583   1.444       .  S
C2570      C2575   1.484       .  S
C2570      C2571   1.400       .  A
C2571      C2572   1.401       .  A
C2571      H2590   1.086       .  S
C2572      C2573   1.421       .  A
C2572      C2584   1.444       .  S
C2573      C2574   1.411       .  A
C2574      H2589   1.084       .  S
C2575      C2576   1.400       .  A
C2575      C2580   1.408       .  A
C2576      C2577   1.401       .  A
C2576      H2591   1.085       .  S
C2577      C2578   1.421       .  A
C2577      C2581   1.444       .  S
C2578      C2579   1.411       .  A
C2579      C2580   1.402       .  A
C2579      H2592   1.084       .  S
C2580      C2582   1.444       .  S
C2581      N2585   1.157       .  T
C2582      N2586   1.157       .  T
C2583      N2588   1.157       .  T
C2584      N2587   1.157       .  T
C2593      C2594   1.411       .  A
C2593      C2598   1.406       .  A
C2593      C2607   1.444       .  S
C2594      C2599   1.501       .  S
C2594      C2595   1.404       .  A
C2595      C2596   1.408       .  A
C2595      H2614   1.085       .  S
C2596      C2597   1.423       .  A
C2596      C2608   1.445       .  S
C2597      C2598   1.410       .  A
C2598      H2613   1.084       .  S
C2599      C2600   1.405       .  A
C2600      H2615   1.086       .  S
C2601      C2602   1.420   1_455  A
C2602      C2603   1.409       .  A
C2603      C2604   1.406   1_655  A
C2603      H2616   1.085       .  S
C2604      C2606   1.443       .  S
C2605      N2609   1.158       .  T
C2606      N2610   1.157       .  T
C2608      N2611   1.158       .  T
C2617      C2618   1.409       .  A
C2617      C2622   1.402       .  A
C2617      C2631   1.443       .  S
C2618      C2623   1.475       .  S
C2618      C2619   1.395       .  A
C2619      C2620   1.394       .  A
C2619      H2638   1.085       .  S
C2620      C2621   1.423       .  A
C2620      C2632   1.446       .  S
C2621      C2622   1.406       .  A
C2622      H2637   1.084       .  S
C2623      C2624   1.400       .  A
C2623      C2628   1.407       .  A
C2624      C2625   1.399       .  A
C2624      H2639   1.084       .  S
C2625      C2626   1.415       .  A
C2625      C3757   1.445       .  S
C2626      C3588   1.479       .  S
C2626      C2627   1.407       .  A
C2627      C2628   1.397       .  A
C2627      H2640   1.084       .  S
C2628      C2630   1.444       .  S
C2629      C3753   1.444       .  S
C2629      N2633   1.157       .  T
C2630      N2634   1.157       .  T
C2631      N2636   1.157       .  T
C2632      N2635   1.158       .  T
C2641      C2642   1.413       .  A
C2641      C2646   1.403       .  A
C2641      C2655   1.443       .  S
C2642      C2647   1.481       .  S
C2642      C2643   1.398       .  A
C2643      C2644   1.396       .  A
C2643      H2662   1.085       .  S
C2644      C2645   1.415       .  A
C2644      C2656   1.445       .  S
C2645      C2646   1.403       .  A
C2646      H2661   1.084       .  S
C2647      C2648   1.406       .  A
C2647      C2652   1.404       .  A
C2648      C2649   1.406       .  A
C2648      H2663   1.084       .  S
C2649      C2650   1.414       .  A
C2649      C2653   1.444       .  S
C2650      C2651   1.409       .  A
C2651      C2652   1.395       .  A
C2651      H2664   1.084       .  S
C2652      C2654   1.444       .  S
C2653      N2657   1.157       .  T
C2654      N2658   1.157       .  T
C2655      N2660   1.157       .  T
C2656      N2659   1.157       .  T
C2665      C2666   1.412       .  A
C2665      C2679   1.444       .  S
C2666      C2671   1.480       .  S
C2666      C2667   1.399       .  A
C2667      H2686   1.085       .  S
C2668      C2669   1.413       .  A
C2668      C2680   1.445       .  S
C2669      C2670   1.403   1_655  A
C2670      H2685   1.085       .  S
C2671      C2672   1.404       .  A
C2671      C2676   1.406       .  A
C2672      C2673   1.401       .  A
C2672      H2687   1.085       .  S
C2673      C2674   1.414       .  A
C2673      C2677   1.445       .  S
C2674      C2675   1.409       .  A
C2675      C2676   1.397       .  A
C2675      H2688   1.084       .  S
C2676      C2678   1.444       .  S
C2677      N2681   1.158       .  T
C2678      N2682   1.157       .  T
C2679      N2684   1.157       .  T
C2680      N2683   1.157       .  T
C2689      C2690   1.410       .  A
C2689      C2694   1.396       .  A
C2689      C2703   1.445       .  S
C2690      C2695   1.488       .  S
C2690      C2691   1.407       .  A
C2691      C2692   1.405       .  A
C2691      H2710   1.084       .  S
C2692      C2693   1.409       .  A
C2692      C2704   1.442       .  S
C2693      C2694   1.404       .  A
C2694      H2709   1.083       .  S
C2695      C2696   1.405       .  A
C2695      C2700   1.407       .  A
C2696      C2697   1.402       .  A
C2696      H2711   1.085       .  S
C2697      C2698   1.416       .  A
C2697      C2701   1.444       .  S
C2698      C2699   1.411       .  A
C2699      C2700   1.398       .  A
C2699      H2712   1.085       .  S
C2700      C2702   1.444       .  S
C2701      N2705   1.157       .  T
C2702      N2706   1.157       .  T
C2703      N2708   1.157       .  T
C2704      N2707   1.157       .  T
C2713      C2714   1.407       .  A
C2713      C2718   1.400       .  A
C2713      C2727   1.444       .  S
C2714      C2719   1.493       .  S
C2715      C2716   1.410       .  A
C2715      H2734   1.085       .  S
C2716      C2717   1.421       .  A
C2716      C2728   1.443       .  S
C2718      H2733   1.085       .  S
C2719      C2720   1.401       .  A
C2719      C2724   1.411       .  A
C2720      C2721   1.402       .  A
C2720      H2735   1.086       .  S
C2721      C2722   1.422       .  A
C2721      C2725   1.445       .  S
C2722      C2723   1.409       .  A
C2723      C2724   1.407       .  A
C2723      H2736   1.089       .  S
C2724      C2726   1.443       .  S
C2725      N2729   1.158       .  T
C2726      N2730   1.157       .  T
C2727      N2732   1.157       .  T
C2728      N2731   1.157       .  T
C2737      C2738   1.404       .  A
C2737      C2742   1.395       .  A
C2737      C2751   1.444       .  S
C2738      C2743   1.479       .  S
C2738      C2739   1.403       .  A
C2739      C2740   1.403       .  A
C2740      C2741   1.418       .  A
C2740      C2752   1.444       .  S
C2741      C2742   1.410       .  A
C2742      H2757   1.085       .  S
C2743      C2744   1.404       .  A
C2743      C2748   1.406       .  A
C2744      C2745   1.404       .  A
C2744      H2759   1.085       .  S
C2745      C2749   1.443       .  S
C2746      C2747   1.407   1_655  A
C2747      H2760   1.086       .  S
C2749      N2753   1.157       .  T
C2750      N2754   1.157       .  T
C2751      N2756   1.157       .  T
C2752      N2755   1.158       .  T
C2761      C2762   1.416       .  A
C2761      C3894   1.404       .  A
C2761      C2775   1.444       .  S
C2762      C2767   1.491       .  S
C2762      C2763   1.401       .  A
C2763      C2764   1.397   1_545  A
C2763      H2782   1.085   1_545  S
C2764      C3893   1.416       .  A
C2764      C2776   1.446       .  S
C2765      C3892   1.419       .  A
C2765      C2766   1.405       .  A
C2766      C3889   1.405       .  A
C2766      H2781   1.084       .  S
C2767      C2768   1.401       .  A
C2767      C2772   1.415       .  A
C2768      C2769   1.397       .  A
C2768      H2783   1.085       .  S
C2769      C2770   1.417       .  A
C2769      C2773   1.444       .  S
C2770      C2771   1.406       .  A
C2771      C2772   1.405       .  A
C2771      H2784   1.085       .  S
C2772      C2774   1.444       .  S
C2773      N2777   1.157       .  T
C2774      N3906   1.157       .  T
C2775      N2780   1.157       .  T
C2776      N2779   1.157       .  T
N2778      C3902   1.157       .  T
C2785      C2786   1.412       .  A
C2785      C2790   1.404       .  A
C2785      C3927   1.443       .  S
C2786      C2791   1.505       .  S
C2786      C2787   1.407       .  A
C2787      C2788   1.409       .  A
C2787      H2806   1.084       .  S
C2788      C2789   1.421       .  A
C2788      C2800   1.445       .  S
C2789      C2790   1.410       .  A
C2790      H2805   1.083       .  S
C2791      C3920   1.407       .  A
C2791      C2796   1.412       .  A
C2792      C3919   1.408       .  A
C2792      C2793   1.411       .  A
C2792      H2807   1.084       .  S
C2793      C2794   1.419       .  A
C2793      C2797   1.443       .  S
C2794      C3923   1.412       .  A
C2795      C3922   1.410       .  A
C2795      C2796   1.405   1_565  A
C2795      H2808   1.084       .  S
C2796      C2798   1.444       .  S
C2797      N2801   1.157       .  T
C2798      N2802   1.157       .  T
C2799      C3913   1.444       .  S
C2799      N2804   1.157       .  T
C2800      N2803   1.158       .  T
C2809      C2810   1.408       .  A
C2809      C2814   1.400       .  A
C2809      C2823   1.444       .  S
C2810      C2815   1.484       .  S
C2810      C2811   1.402       .  A
C2811      C2812   1.402       .  A
C2811      H2830   1.085       .  S
C2812      C2813   1.418       .  A
C2813      C2814   1.407       .  A
C2814      H2829   1.084       .  S
C2815      C2816   1.396       .  A
C2815      C2820   1.410       .  A
C2816      C2817   1.397       .  A
C2816      H2831   1.085       .  S
C2817      C2818   1.425       .  A
C2817      C2821   1.446       .  S
C2818      C2819   1.407       .  A
C2819      C2820   1.405       .  A
C2819      H2832   1.084       .  S
C2820      C2822   1.443       .  S
C2821      N2825   1.158       .  T
C2822      N2826   1.157       .  T
C2823      N2828   1.157       .  T
C2824      N2827   1.158       .  T
C2833      C2834   1.412       .  A
C2833      C2838   1.405       .  A
C2833      C2847   1.443       .  S
C2834      C2839   1.477       .  S
C2834      C2835   1.394       .  A
C2835      C2836   1.393       .  A
C2835      H2854   1.086       .  S
C2836      C2837   1.419       .  A
C2836      C2848   1.446       .  S
C2837      C2838   1.403       .  A
C2838      H2853   1.084       .  S
C2839      C2840   1.405       .  A
C2839      C2844   1.404       .  A
C2840      C2841   1.402       .  A
C2840      H2855   1.084       .  S
C2841      C2842   1.411       .  A
C2841      C2845   1.444       .  S
C2842      C2843   1.407       .  A
C2843      C2844   1.396       .  A
C2843      H2856   1.085       .  S
C2844      C2846   1.444       .  S
C2845      N2849   1.157       .  T
C2846      N2850   1.157       .  T
C2847      N2852   1.157       .  T
C2848      N2851   1.157       .  T
C2857      C2858   1.412       .  A
C2857      C2862   1.403       .  A
C2857      C2871   1.444       .  S
C2858      C2863   1.482       .  S
C2858      C2859   1.398       .  A
C2859      C2860   1.396       .  A
C2859      H2878   1.086       .  S
C2860      C2861   1.420       .  A
C2860      C4000   1.446       .  S
C2861      C3478   1.483       .  S
C2861      C2862   1.405       .  A
C2862      H2877   1.085       .  S
C2863      C2864   1.400       .  A
C2863      C2868   1.411       .  A
C2864      C2865   1.396       .  A
C2864      H2879   1.084       .  S
C2865      C2866   1.415       .  A
C2865      C2869   1.445       .  S
C2866      C2867   1.406       .  A
C2867      C2868   1.403       .  A
C2867      H2880   1.084       .  S
C2868      C2870   1.444       .  S
C2869      N2873   1.157       .  T
C2870      N2874   1.157       .  T
C2871      N2876   1.157       .  T
C2872      C3988   1.446       .  S
C2872      N2875   1.158       .  T
C2881      C2882   1.412       .  A
C2881      C2886   1.399       .  A
C2881      C2895   1.444       .  S
C2882      C2887   1.474       .  S
C2882      C2883   1.397       .  A
C2883      C2884   1.394       .  A
C2883      H2902   1.086       .  S
C2884      C2885   1.417       .  A
C2884      C2896   1.447       .  S
C2885      C2886   1.399       .  A
C2886      H2901   1.085       .  S
C2887      C2888   1.402       .  A
C2887      C2892   1.404       .  A
C2888      C2889   1.400       .  A
C2888      H2903   1.085       .  S
C2889      C2890   1.415       .  A
C2889      C2893   1.443       .  S
C2890      C2891   1.409       .  A
C2891      C2892   1.394       .  A
C2891      H2904   1.085       .  S
C2892      C2894   1.445       .  S
C2893      N2897   1.157       .  T
C2894      N2898   1.157       .  T
C2895      N2900   1.157       .  T
C2896      N2899   1.158       .  T
C2905      C2906   1.410       .  A
C2905      C2910   1.404       .  A
C2905      C2919   1.444       .  S
C2906      C2911   1.489       .  S
C2906      C2907   1.402       .  A
C2907      C2908   1.403       .  A
C2907      H2926   1.085       .  S
C2908      C2909   1.416       .  A
C2908      C2920   1.444       .  S
C2909      C2910   1.407       .  A
C2910      H2925   1.085       .  S
C2911      C2912   1.401       .  A
C2911      C2916   1.408       .  A
C2913      C2914   1.422       .  A
C2913      C2917   1.444       .  S
C2915      C2916   1.402   1_455  A
C2915      H2928   1.084       .  S
C2916      C2918   1.443       .  S
C2917      N2921   1.157       .  T
C2918      N2922   1.157       .  T
C2919      N2924   1.157       .  T
C2920      N2923   1.157       .  T
C2929      C2934   1.397       .  A
C2929      C2943   1.444       .  S
C2930      C2935   1.486       .  S
C2930      C2931   1.406       .  A
C2931      C2932   1.403       .  A
C2931      H2950   1.085       .  S
C2932      C2944   1.444       .  S
C2933      C2934   1.407       .  A
C2934      H2949   1.085       .  S
C2935      C2936   1.405       .  A
C2935      C2940   1.411       .  A
C2936      C2937   1.402       .  A
C2936      H2951   1.084       .  S
C2937      C2938   1.412       .  A
C2937      C2941   1.444       .  S
C2938      C2939   1.403       .  A
C2939      C2940   1.397       .  A
C2939      H2952   1.085       .  S
C2940      C2942   1.444       .  S
C2941      N2945   1.157       .  T
C2942      N2946   1.157       .  T
C2943      N2948   1.157       .  T
C2944      N2947   1.157       .  T
C2953      C2954   1.408       .  A
C2953      C2958   1.395       .  A
C2953      C2967   1.444       .  S
C2954      C2959   1.486       .  S
C2954      C2955   1.405       .  A
C2955      C2956   1.401       .  A
C2955      H2974   1.085       .  S
C2956      C2957   1.416       .  A
C2956      C2968   1.444       .  S
C2957      C2958   1.408       .  A
C2958      H2973   1.085       .  S
C2959      C4088   1.404       .  A
C2959      C2964   1.410       .  A
C2960      C4087   1.403       .  A
C2960      C2961   1.402   1_565  A
C2960      H2975   1.085       .  S
C2961      C2962   1.414       .  A
C2961      C2965   1.443       .  S
C2962      C4091   1.404   1_545  A
C2963      C4090   1.408       .  A
C2963      C2964   1.395       .  A
C2963      H2976   1.085       .  S
C2964      C2966   1.446       .  S
C2965      N2969   1.157       .  T
C2966      N2970   1.157       .  T
C2967      N2972   1.157       .  T
C2968      N2971   1.157       .  T
C2977      C2978   1.412       .  A
C2977      C2982   1.402       .  A
C2977      C2991   1.444       .  S
C2978      C2983   1.495       .  S
C2978      C2979   1.403       .  A
C2979      C2980   1.404       .  A
C2979      H2998   1.085       .  S
C2980      C2981   1.421       .  A
C2980      C2992   1.444       .  S
C2981      C2982   1.409       .  A
C2982      H2997   1.084       .  S
C2983      C2984   1.404       .  A
C2983      C2988   1.413       .  A
C2984      C4113   1.404       .  A
C2984      H2999   1.085       .  S
C2985      C4112   1.403       .  A
C2985      C2986   1.421       .  A
C2985      C2989   1.444       .  S
C2986      C2987   1.410   1_545  A
C2987      C4116   1.402       .  A
C2987      H3000   1.084       .  S
C2988      C4115   1.404       .  A
C2988      C2990   1.444       .  S
C2989      N2993   1.157       .  T
C2990      N2994   1.157       .  T
C2991      N2996   1.157       .  T
C2992      N2995   1.157       .  T
C3001      C3002   1.408       .  A
C3001      C3006   1.407       .  A
C3001      C3015   1.443       .  S
C3002      C3007   1.491       .  S
C3002      C3003   1.400       .  A
C3003      C3004   1.403       .  A
C3003      H3022   1.086       .  S
C3004      C3005   1.421       .  A
C3004      C3016   1.444       .  S
C3005      C3006   1.412       .  A
C3006      H3021   1.084       .  S
C3007      C3008   1.403       .  A
C3007      C3012   1.407       .  A
C3008      C3009   1.407       .  A
C3008      H3023   1.085       .  S
C3009      C3010   1.422       .  A
C3009      C3013   1.444       .  S
C3010      C3011   1.411       .  A
C3011      C3012   1.403       .  A
C3011      H3024   1.085       .  S
C3012      C3014   1.444       .  S
C3013      N3017   1.157       .  T
C3014      N3018   1.157       .  T
C3015      N3020   1.157       .  T
C3016      N3019   1.157       .  T
C3025      C3026   1.411       .  A
C3025      C3030   1.409       .  A
C3025      C3039   1.443       .  S
C3026      C3031   1.499       .  S
C3026      C3027   1.402       .  A
C3027      C3028   1.405       .  A
C3027      H3046   1.085       .  S
C3028      C3029   1.422       .  A
C3028      C3040   1.444       .  S
C3029      C3030   1.413       .  A
C3030      H3045   1.084       .  S
C3031      C3032   1.402       .  A
C3031      C3036   1.414       .  A
C3032      C4161   1.403       .  A
C3032      H3047   1.085       .  S
C3033      C4160   1.403   1_545  A
C3033      C3034   1.419       .  A
C3033      C3037   1.444       .  S
C3034      C3035   1.409       .  A
C3035      C4164   1.406   1_545  A
C3035      H3048   1.084       .  S
C3036      C4163   1.410       .  A
C3036      C3038   1.444       .  S
C3037      N3041   1.157       .  T
C3038      N3042   1.157       .  T
C3039      N4172   1.157       .  T
C3040      N3043   1.157       .  T
N3044      C4167   1.157       .  T
C3049      C3050   1.410       .  A
C3049      C3054   1.399       .  A
C3049      C3063   1.444       .  S
C3050      C3055   1.479       .  S
C3050      C3051   1.399       .  A
C3051      C3052   1.395       .  A
C3051      H3070   1.085       .  S
C3052      C3053   1.420       .  A
C3052      C3064   1.445       .  S
C3053      C3054   1.408       .  A
C3054      H3069   1.084       .  S
C3055      C3056   1.398       .  A
C3055      C3060   1.412       .  A
C3056      C3057   1.391       .  A
C3056      H3071   1.085       .  S
C3057      C3058   1.417       .  A
C3057      C3061   1.446       .  S
C3058      C3059   1.404       .  A
C3059      C3060   1.402       .  A
C3059      H3072   1.085       .  S
C3060      C3062   1.444       .  S
C3061      N3065   1.157       .  T
C3062      N3066   1.157       .  T
C3063      N3068   1.157       .  T
C3064      N3067   1.158       .  T
C3073      C3074   1.404       .  A
C3073      C3078   1.396       .  A
C3073      C3087   1.444       .  S
C3074      C3079   1.483       .  S
C3074      C3075   1.406       .  A
C3075      C3076   1.406       .  A
C3075      H3094   1.085       .  S
C3076      C3077   1.414       .  A
C3076      C3088   1.444       .  S
C3077      C3078   1.411       .  A
C3078      H3093   1.085       .  S
C3079      C3080   1.398       .  A
C3079      C3084   1.412       .  A
C3080      C3081   1.398       .  A
C3080      H3095   1.085       .  S
C3081      C3082   1.415       .  A
C3081      C3085   1.444       .  S
C3082      C3083   1.403       .  A
C3083      C3084   1.405       .  A
C3083      H3096   1.085       .  S
C3084      C3086   1.444       .  S
C3085      N3089   1.157       .  T
C3086      N3090   1.157       .  T
C3087      N3092   1.157       .  T
C3088      N3091   1.157       .  T
C3097      C3098   1.406       .  A
C3097      C3102   1.397       .  A
C3097      C3111   1.445       .  S
C3098      C3103   1.480       .  S
C3098      C3099   1.401       .  A
C3099      C3100   1.405       .  A
C3099      H3118   1.085       .  S
C3100      C3101   1.415       .  A
C3100      C3112   1.441       .  S
C3101      C3102   1.409       .  A
C3102      H3117   1.085       .  S
C3103      C3104   1.404       .  A
C3103      C3108   1.406       .  A
C3104      C3105   1.403       .  A
C3104      H3119   1.084       .  S
C3105      C3106   1.411       .  A
C3105      C3109   1.444       .  S
C3106      C3107   1.406       .  A
C3107      C3108   1.397       .  A
C3107      H3120   1.084       .  S
C3108      C3110   1.444       .  S
C3109      N3113   1.157       .  T
C3110      N3114   1.157       .  T
C3111      N3116   1.157       .  T
C3112      N3115   1.157       .  T
C3121      C3122   1.415       .  A
C3121      C3126   1.406       .  A
C3121      C3135   1.443       .  S
C3122      C3127   1.488       .  S
C3122      C3123   1.401       .  A
C3123      C3124   1.396       .  A
C3123      H3142   1.085       .  S
C3124      C3125   1.415       .  A
C3124      C3136   1.445       .  S
C3125      C3126   1.405       .  A
C3126      H3141   1.085       .  S
C3127      C3128   1.404       .  A
C3127      C4260   1.412       .  A
C3128      C3129   1.397       .  A
C3128      H3143   1.085       .  S
C3129      C4258   1.410       .  A
C3129      C3133   1.445       .  S
C3130      C4257   1.418       .  A
C3130      C3131   1.407       .  A
C3131      C3132   1.404       .  A
C3131      H3144   1.084   1_565  S
C3132      C4255   1.409       .  A
C3132      C3134   1.443       .  S
C3133      N3137   1.157       .  T
C3134      N3138   1.157       .  T
C3135      N3140   1.157       .  T
C3136      N3139   1.157       .  T
C3145      C3146   1.412       .  A
C3145      C4278   1.402   1_545  A
C3145      C3159   1.445       .  S
C3146      C3151   1.496       .  S
C3146      C3147   1.403   1_545  A
C3147      C4276   1.406       .  A
C3147      H3166   1.085       .  S
C3148      C4275   1.406       .  A
C3148      C3149   1.419       .  A
C3148      C3160   1.444       .  S
C3149      C3150   1.409       .  A
C3150      C4273   1.401       .  A
C3150      H3165   1.085       .  S
C3151      C3152   1.404       .  A
C3151      C3156   1.413       .  A
C3152      C3153   1.405       .  A
C3152      H3167   1.085       .  S
C3153      C3154   1.417       .  A
C3153      C3157   1.444       .  S
C3154      C3155   1.407       .  A
C3155      C3156   1.402       .  A
C3155      H3168   1.085       .  S
C3156      C3158   1.444       .  S
C3157      N3161   1.157       .  T
C3158      N3162   1.157       .  T
C3159      N3164   1.157       .  T
C3160      N3163   1.157       .  T
C3169      C3170   1.412       .  A
C3169      C3174   1.404   1_545  A
C3169      C3183   1.443       .  S
C3170      C3175   1.489       .  S
C3170      C4299   1.403       .  A
C3171      C4298   1.399       .  A
C3171      C3172   1.396       .  A
C3171      H3190   1.085       .  S
C3172      C3173   1.414       .  A
C3172      C3184   1.445       .  S
C3173      C4302   1.405       .  A
C3174      C4301   1.405       .  A
C3174      H3189   1.084       .  S
C3175      C3176   1.400       .  A
C3175      C3180   1.412       .  A
C3176      C3177   1.401       .  A
C3176      H3191   1.086       .  S
C3177      C3178   1.421       .  A
C3177      C3181   1.445       .  S
C3178      C3179   1.406       .  A
C3179      C3180   1.404       .  A
C3179      H3192   1.085       .  S
C3180      C4310   1.444       .  S
C3181      N3185   1.157       .  T
C3182      C4308   1.443       .  S
C3182      N3186   1.157       .  T
C3183      N3188   1.157   1_545  T
C3184      N3187   1.157       .  T
C3193      C3194   1.409       .  A
C3193      C3198   1.395       .  A
C3193      C3207   1.445       .  S
C3194      C3199   1.480       .  S
C3194      C3195   1.404       .  A
C3195      C3196   1.398       .  A
C3195      H3214   1.085       .  S
C3196      C3197   1.412       .  A
C3196      C3208   1.444       .  S
C3197      C3198   1.405       .  A
C3198      H3213   1.085       .  S
C3199      C3200   1.405       .  A
C3199      C3204   1.407       .  A
C3200      C3201   1.402       .  A
C3200      H3215   1.084       .  S
C3201      C3202   1.413       .  A
C3201      C3205   1.444       .  S
C3202      C3203   1.406       .  A
C3203      C3204   1.393       .  A
C3203      H3216   1.085       .  S
C3204      C3206   1.445       .  S
C3205      N3209   1.157       .  T
C3206      N3210   1.157       .  T
C3207      N3212   1.157       .  T
C3208      N3211   1.157       .  T
C3217      C3218   1.407       .  A
C3217      C3222   1.400       .  A
C3217      C3231   1.444       .  S
C3218      C3223   1.484       .  S
C3218      C3219   1.401       .  A
C3219      C3220   1.404       .  A
C3219      H3238   1.085       .  S
C3220      C3221   1.419       .  A
C3220      C3232   1.444       .  S
C3221      C3222   1.410       .  A
C3222      H3237   1.085       .  S
C3223      C3224   1.400       .  A
C3223      C3228   1.409       .  A
C3224      C3225   1.402       .  A
C3224      H3239   1.084       .  S
C3225      C3226   1.417       .  A
C3225      C3229   1.443       .  S
C3226      C3227   1.406       .  A
C3227      C3228   1.402       .  A
C3227      H3240   1.084       .  S
C3228      C3230   1.443       .  S
C3229      N3233   1.157   1_556  T
C3230      N3234   1.157       .  T
C3231      N3236   1.157       .  T
C3232      N3235   1.158       .  T
C3241      C3246   1.402       .  A
C3241      C3255   1.445       .  S
C3242      C3247   1.492       .  S
C3242      C3243   1.402       .  A
C3243      C3244   1.404       .  A
C3243      H3262   1.085       .  S
C3244      C3256   1.444       .  S
C3245      C3246   1.409       .  A
C3246      H3261   1.085       .  S
C3247      C3248   1.404       .  A
C3247      C3252   1.412       .  A
C3248      C3249   1.405       .  A
C3248      H3263   1.085       .  S
C3249      C3250   1.415       .  A
C3249      C3253   1.444       .  S
C3250      C3251   1.405       .  A
C3251      C3252   1.400       .  A
C3251      H3264   1.085       .  S
C3252      C3254   1.444       .  S
C3253      N3257   1.157       .  T
C3254      N3258   1.157       .  T
C3255      N3260   1.157       .  T
C3256      N3259   1.157       .  T
C3265      C3266   1.410       .  A
C3265      C3270   1.407       .  A
C3265      C3279   1.444       .  S
C3266      C3271   1.502       .  S
C3266      C3267   1.405       .  A
C3267      C3268   1.409       .  A
C3267      H3286   1.084       .  S
C3268      C3269   1.421       .  A
C3268      C3280   1.444       .  S
C3269      C3270   1.412       .  A
C3270      H3285   1.084       .  S
C3271      C3272   1.406       .  A
C3271      C3276   1.410       .  A
C3272      C3273   1.409       .  A
C3272      H3287   1.084       .  S
C3273      C3274   1.418       .  A
C3273      C3277   1.443       .  S
C3274      C3275   1.412       .  A
C3275      C3276   1.406       .  A
C3275      H3288   1.083       .  S
C3276      C3278   1.444       .  S
C3277      N3281   1.157       .  T
C3278      N3282   1.157       .  T
C3279      N3284   1.157       .  T
C3280      N3283   1.158       .  T
C3289      C3290   1.405       .  A
C3289      C3294   1.395       .  A
C3289      C3303   1.445       .  S
C3290      C3295   1.472       .  S
C3290      C3291   1.398       .  A
C3291      C3292   1.398       .  A
C3291      H3310   1.085       .  S
C3292      C3293   1.419       .  A
C3292      C3304   1.444       .  S
C3293      C3412   1.484   1_545  S
C3293      C3294   1.409       .  A
C3294      H3309   1.085       .  S
C3295      C3296   1.403       .  A
C3295      C3300   1.401       .  A
C3296      C3297   1.403       .  A
C3296      H3311   1.085       .  S
C3297      C3298   1.415       .  A
C3297      C3301   1.443       .  S
C3298      C3299   1.412       .  A
C3299      C3300   1.390       .  A
C3300      C3302   1.446       .  S
C3301      N3305   1.157       .  T
C3302      N3306   1.157       .  T
C3303      N3308   1.157       .  T
C3304      N4435   1.157   1_545  T
N3307      C4432   1.157       .  T
C3313      C3314   1.404       .  A
C3313      C3318   1.393       .  A
C3313      C3327   1.445       .  S
C3314      C3319   1.477       .  S
C3314      C3315   1.405       .  A
C3315      C3316   1.404       .  A
C3315      H3334   1.084       .  S
C3316      C3317   1.411       .  A
C3316      C3328   1.443       .  S
C3317      C3318   1.407       .  A
C3318      H3333   1.085       .  S
C3319      C3320   1.397       .  A
C3319      C3324   1.412       .  A
C3320      C3321   1.396       .  A
C3320      H3335   1.086       .  S
C3321      C3322   1.417       .  A
C3321      C3325   1.446       .  S
C3322      C3323   1.402       .  A
C3323      C3324   1.401       .  A
C3323      H3336   1.086       .  S
C3324      C3326   1.444       .  S
C3325      N3329   1.157       .  T
C3326      N3330   1.157       .  T
C3327      N3332   1.157       .  T
C3328      N3331   1.157       .  T
C3337      C3338   1.413   1_554  A
C3337      C3342   1.403       .  A
C3337      C3351   1.443       .  S
C3338      C3343   1.485       .  S
C3338      C3339   1.399       .  A
C3339      C3340   1.401       .  A
C3339      H3358   1.085       .  S
C3340      C3341   1.417   1_556  A
C3340      C3352   1.445       .  S
C3341      C3342   1.403       .  A
C3342      H3357   1.085       .  S
C3343      C3344   1.406       .  A
C3344      C3345   1.409       .  A
C3344      H3359   1.085       .  S
C3345      C3349   1.443       .  S
C3346      C3347   1.407       .  A
C3347      C3348   1.395       .  A
C3347      H3360   1.086       .  S
C3348      C3350   1.444       .  S
C3349      N3353   1.157       .  T
C3350      N3354   1.157       .  T
C3351      N3356   1.157       .  T
C3352      N3355   1.157       .  T
C3361      C3362   1.413       .  A
C3361      C3366   1.404       .  A
C3361      C3375   1.443       .  S
C3362      C3367   1.483       .  S
C3362      C3363   1.398       .  A
C3363      C3364   1.392       .  A
C3363      H3382   1.086       .  S
C3364      C3365   1.419       .  A
C3364      C3376   1.446       .  S
C3365      C3366   1.404       .  A
C3366      H3381   1.085       .  S
C3367      C3368   1.399       .  A
C3367      C3372   1.413       .  A
C3368      C3369   1.396       .  A
C3368      H3383   1.086       .  S
C3369      C3370   1.418       .  A
C3369      C3373   1.445       .  S
C3370      C3371   1.403       .  A
C3371      C3372   1.401       .  A
C3371      H3384   1.085       .  S
C3372      C3374   1.444       .  S
C3373      N3377   1.157       .  T
C3374      N3378   1.157       .  T
C3375      N3380   1.157       .  T
C3376      N3379   1.157   1_554  T
O3385     Cr3403   1.987       .  S
O3385      C3393   1.259       .  A
O3386     Cr3403   1.989   1_554  S
O3386      C3387   1.266       .  A
C3387      O3388   1.273   1_554  A
C3387      C4373   1.504       .  S
O3388     Cr3404   2.019       .  S
O3389     Cr3404   1.993       .  S
O3389      C3390   1.261       .  A
C3390      O3391   1.258       .  A
O3391     Cr3405   1.972       .  S
O3392     Cr3405   2.003       .  S
O3392      C3393   1.264       .  A
C3393      C4474   1.473       .  S
O3394     Cr3403   1.998       .  S
O3394      C3402   1.266       .  A
O3395     Cr3403   1.982       .  S
O3395      C3396   1.256       .  A
C3396      O3397   1.261       .  A
C3396      C4498   1.479   1_556  S
O3397     Cr3404   1.990       .  S
O3398     Cr3404   2.023       .  S
O3398      C3399   1.272       .  A
C3399      O3400   1.266       .  A
C3399      C4397   1.505       .  S
O3400     Cr3405   1.989       .  S
O3401     Cr3405   1.991       .  S
O3401      C3402   1.262       .  A
C3402      C4450   1.486       .  S
Cr3403     O3406   1.772       .  S
Cr3404     O3406   1.771       .  S
Cr3405     O3406   1.768       .  S
O3407     Cr3425   1.960       .  S
O3407      C3415   1.254       .  A
O3408     Cr3425   2.028       .  S
O3408      C3409   1.273       .  A
C3409      O3410   1.264       .  A
C3409      C4277   1.501       .  S
O3410     Cr3426   1.974       .  S
O3411     Cr3426   2.010       .  S
O3411      C3412   1.266       .  A
C3412      O3413   1.258       .  A
O3413     Cr3427   1.965       .  S
O3414     Cr3427   2.025       .  S
O3414      C3415   1.268       .  A
C3415      C4301   1.483       .  S
O3416     Cr3425   2.028       .  S
O3416      C3424   1.271       .  A
O3417     Cr3425   1.954       .  S
O3417      C3418   1.252       .  A
C3418      O3419   1.265       .  A
C3418      C4325   1.474       .  S
O3419     Cr3426   2.018       .  S
O3420     Cr3426   1.983       .  S
O3420      C3421   1.264       .  A
C3421      O3422   1.272       .  A
C3421      C4349   1.498       .  S
O3422     Cr3427   2.022       .  S
O3423     Cr3427   1.947       .  S
O3423      C3424   1.255       .  A
C3424      C4445   1.478       .  S
Cr3425     O3428   1.760       .  S
Cr3426     O3428   1.769       .  S
Cr3427     O3428   1.764       .  S
O3429     Cr3447   1.948       .  S
O3429      C3437   1.253       .  A
O3430     Cr3447   2.027       .  S
O3430      C3431   1.272       .  A
C3431      O3432   1.262       .  A
C3431      C4133   1.504       .  S
O3432     Cr3448   1.978       .  S
O3433     Cr3448   2.015       .  S
O3433      C3434   1.268       .  A
C3434      O3435   1.255       .  A
C3434      C4181   1.483       .  S
O3435     Cr3449   1.961       .  S
O3436     Cr3449   2.032       .  S
O3436      C3437   1.268       .  A
C3437      C4229   1.495       .  S
O3438     Cr3447   2.026       .  S
O3438      C3446   1.270       .  A
O3439     Cr3447   1.952       .  S
O3439      C3440   1.253       .  A
C3440      O3441   1.266       .  A
C3440      C4253   1.472       .  S
O3441     Cr3448   2.023       .  S
O3442     Cr3448   1.985       .  S
O3442      C3443   1.265       .  A
C3443      O3444   1.272       .  A
C3443      C4157   1.497       .  S
O3444     Cr3449   2.023       .  S
O3445     Cr3449   1.951       .  S
O3445      C3446   1.254       .  A
C3446      C4210   1.469       .  S
Cr3447     O3450   1.764       .  S
Cr3448     O3450   1.772       .  S
Cr3449     O3450   1.770       .  S
O3451     Cr3469   1.993       .  S
O3451      C3459   1.264       .  A
O3452     Cr3469   1.983       .  S
O3452      C3453   1.263       .  A
C3453      O3454   1.270       .  A
C3453      C4042   1.499       .  S
O3454     Cr3470   2.013       .  S
O3455     Cr3470   2.000       .  S
O3455      C3456   1.263       .  A
C3456      O3457   1.255       .  A
O3457     Cr3471   1.970       .  S
O3458     Cr3471   1.993       .  S
O3458      C3459   1.265       .  A
C3459      C4061   1.484       .  S
O3460     Cr3469   2.002       .  S
O3460      C3468   1.265       .  A
O3461     Cr3469   1.989       .  S
O3461      C3462   1.261       .  A
C3462      O3463   1.261       .  A
C3462      C4085   1.486       .  S
O3463     Cr3470   1.991       .  S
O3464     Cr3470   2.014       .  S
O3464      C3465   1.269       .  A
C3465      O3466   1.266       .  A
C3465      C4109   1.496       .  S
O3466     Cr3471   1.984       .  S
O3467     Cr3471   1.983       .  S
O3467      C3468   1.260       .  A
C3468      C4205   1.483       .  S
Cr3469     O3472   1.765       .  S
Cr3470     O3472   1.769       .  S
Cr3471     O3472   1.762       .  S
O3473     Cr3491   1.952       .  S
O3473      C3481   1.254       .  A
O3474     Cr3491   2.034       .  S
O3474      C3475   1.274       .  A
C3475      O3476   1.264       .  A
C3475      C4162   1.500       .  S
O3476     Cr3492   1.978       .  S
O3477     Cr3492   2.030       .  S
O3477      C3478   1.269       .  A
C3478      O3479   1.254       .  A
O3479     Cr3493   1.956       .  S
O3480     Cr3493   2.021       .  S
O3480      C3481   1.266       .  A
C3481      C4090   1.486       .  S
O3482     Cr3491   2.031       .  S
O3482      C3490   1.271       .  A
O3483     Cr3491   1.952       .  S
O3483      C3484   1.252       .  A
C3484      O3485   1.268       .  A
C3484      C4066   1.477       .  S
O3485     Cr3492   2.025       .  S
O3486     Cr3492   1.987       .  S
O3486      C3487   1.265       .  A
C3487      O3488   1.271       .  A
C3487      C4378   1.499       .  S
O3488     Cr3493   2.020       .  S
O3489     Cr3493   1.941       .  S
O3489      C3490   1.252       .  A
C3490      C4013   1.473       .  S
Cr3491     O3494   1.763       .  S
Cr3492     O3494   1.769       .  S
Cr3493     O3494   1.763       .  S
O3495     Cr3513   1.984       .  S
O3495      C3503   1.256       .  A
O3496     Cr3513   1.983       .  S
O3496      C3497   1.265       .  A
C3497      O3498   1.273       .  A
C3497      C4354   1.488   1_554  S
O3498     Cr3514   2.024       .  S
O3499     Cr3514   1.982       .  S
O3499      C3500   1.261       .  A
C3500      O3501   1.260       .  A
C3500      C3994   1.476       .  S
O3501     Cr3515   1.980       .  S
O3502     Cr3515   1.996       .  S
O3502      C3503   1.260       .  A
C3503      C4493   1.481       .  S
O3504     Cr3513   1.987       .  S
O3504      C3512   1.266       .  A
O3505     Cr3513   1.986       .  S
O3505      C3506   1.256       .  A
C3506      O3507   1.259       .  A
C3506      C4469   1.482       .  S
O3507     Cr3514   1.995       .  S
O3508     Cr3514   2.009       .  S
O3508      C3509   1.268       .  A
C3509      O3510   1.263       .  A
C3509      C4037   1.487       .  S
O3510     Cr3515   1.982       .  S
O3511     Cr3515   2.000       .  S
O3511      C3512   1.269       .  A
C3512      C4018   1.487       .  S
Cr3513     O3516   1.769       .  S
Cr3514     O3516   1.771       .  S
Cr3515     O3516   1.770       .  S
O3517     Cr3535   1.982       .  S
O3517      C3525   1.261       .  A
O3518     Cr3535   1.983       .  S
O3518      C3519   1.265       .  A
C3519      O3520   1.275       .  A
C3519      C4402   1.506       .  S
O3520     Cr3536   2.034       .  S
O3521     Cr3536   1.992       .  S
O3521      C3522   1.262       .  A
C3522      O3523   1.258       .  A
C3522      C3946   1.478       .  S
O3523     Cr3537   1.979       .  S
O3524     Cr3537   1.996       .  S
O3524      C3525   1.263       .  A
C3525      C4330   1.479       .  S
O3526     Cr3535   1.999       .  S
O3526      C3534   1.266       .  A
O3527     Cr3535   1.982       .  S
O3527      C3528   1.255       .  A
C3528      O3529   1.261       .  A
C3528      C4306   1.490       .  S
O3529     Cr3536   1.995       .  S
O3530     Cr3536   2.023       .  S
O3530      C3531   1.272       .  A
C3531      O3532   1.265       .  A
C3531      C3917   1.505       .  S
O3532     Cr3537   1.986       .  S
O3533     Cr3537   1.995       .  S
O3533      C3534   1.263       .  A
C3534      C3970   1.483       .  S
Cr3535     O3538   1.769       .  S
Cr3536     O3538   1.770       .  S
Cr3537     O3538   1.769       .  S
O3539     Cr3557   1.942       .  S
O3539      C3547   1.252       .  A
O3540     Cr3557   2.034       .  S
O3540      C3541   1.274       .  A
C3541      O3542   1.264       .  A
C3541      C3845   1.501       .  S
O3542     Cr3558   1.974       .  S
O3543     Cr3558   2.023       .  S
O3543      C3544   1.269       .  A
C3544      O3545   1.254       .  A
O3545     Cr3559   1.962       .  S
O3546     Cr3559   2.025       .  S
O3546      C3547   1.268       .  A
C3547      C3874   1.479       .  S
O3548     Cr3557   2.038       .  S
O3548      C3556   1.272       .  A
O3549     Cr3557   1.958       .  S
O3549      C3550   1.254       .  A
C3550      O3551   1.269       .  A
C3550      C3898   1.485       .  S
O3551     Cr3558   2.029       .  S
O3552     Cr3558   1.976       .  S
O3552      C3553   1.264       .  A
C3553      O3554   1.273       .  A
C3553      C4282   1.495       .  S
O3554     Cr3559   2.023       .  S
O3555     Cr3559   1.942       .  S
O3555      C3556   1.251       .  A
C3556      C3965   1.486       .  S
Cr3557     O3560   1.763       .  S
Cr3558     O3560   1.766       .  S
Cr3559     O3560   1.764       .  S
O3561     Cr3579   1.997       .  S
O3561      C3569   1.260       .  A
O3562     Cr3579   1.980       .  S
O3562      C3563   1.264       .  A
C3563      O3564   1.272       .  A
C3563      C3730   1.494       .  S
O3564     Cr3580   2.019       .  S
O3565     Cr3580   1.982       .  S
O3565      C3566   1.259       .  A
C3566      O3567   1.259       .  A
O3567     Cr3581   1.977       .  S
O3568     Cr3581   1.989       .  S
O3568      C3569   1.259       .  A
C3569      C3797   1.469       .  S
O3570     Cr3579   1.988       .  S
O3570      C3578   1.264       .  A
O3571     Cr3579   1.994       .  S
O3571      C3572   1.261       .  A
C3572      O3573   1.260       .  A
C3572      C3826   1.491       .  S
O3573     Cr3580   1.987       .  S
O3574     Cr3580   2.019       .  S
O3574      C3575   1.271       .  A
C3575      O3576   1.264       .  A
C3575      C4138   1.503       .  S
O3576     Cr3581   1.987       .  S
O3577     Cr3581   1.989       .  S
O3577      C3578   1.263       .  A
C3578      C3778   1.481       .  S
Cr3579     O3582   1.772       .  S
Cr3580     O3582   1.769       .  S
Cr3581     O3582   1.765       .  S
O3583     Cr3601   1.965       .  S
O3583      C3591   1.254       .  A
O3584     Cr3601   2.018       .  S
O3584      C3585   1.270       .  A
C3585      O3586   1.263       .  A
C3585      C4114   1.493       .  S
O3586     Cr3602   1.979       .  S
O3587     Cr3602   2.018       .  S
O3587      C3588   1.270       .  A
C3588      O3589   1.258       .  A
O3589     Cr3603   1.961       .  S
O3590     Cr3603   2.022       .  S
O3590      C3591   1.265       .  A
C3591      C4258   1.477       .  S
O3592     Cr3601   2.031       .  S
O3592      C3600   1.272       .  A
O3593     Cr3601   1.965       .  S
O3593      C3594   1.257       .  A
C3594      O3595   1.267       .  A
C3594      C4234   1.482       .  S
O3595     Cr3602   2.014       .  S
O3596     Cr3602   1.988       .  S
O3596      C3597   1.263       .  A
C3597      O3598   1.267       .  A
C3597      C3706   1.496       .  S
O3598     Cr3603   2.013       .  S
O3599     Cr3603   1.936       .  S
O3599      C3600   1.252       .  A
C3600      C3773   1.471       .  S
Cr3601     O3604   1.767       .  S
Cr3602     O3604   1.767       .  S
Cr3603     O3604   1.766       .  S
O3605     Cr3623   1.994       .  S
O3605      C3613   1.263       .  A
O3606     Cr3623   1.978       .  S
O3606      C3607   1.265       .  A
C3607      O3608   1.276       .  A
C3607      C3922   1.504       .  S
O3608     Cr3624   2.037       .  S
O3609     Cr3624   1.980       .  S
O3609      C3610   1.261       .  A
C3610      O3611   1.258       .  A
O3611     Cr3625   1.974       .  S
O3612     Cr3625   1.994       .  S
O3612      C3613   1.264       .  A
C3613      C3893   1.481       .  S
O3614     Cr3623   2.000       .  S
O3614      C3622   1.265       .  A
O3615     Cr3623   1.984       .  S
O3615      C3616   1.257       .  A
C3616      O3617   1.257       .  A
C3616      C3869   1.488       .  S
O3617     Cr3624   1.987       .  S
O3618     Cr3624   2.021       .  S
O3618      C3619   1.272       .  A
C3619      O3620   1.264       .  A
C3619      C3725   1.503       .  S
O3620     Cr3625   1.985       .  S
O3621     Cr3625   1.987       .  S
O3621      C3622   1.262       .  A
C3622      C3677   1.481       .  S
Cr3623     O3626   1.769       .  S
Cr3624     O3626   1.771       .  S
Cr3625     O3626   1.767       .  S
O3627     Cr3645   1.991       .  S
O3627      C3635   1.262       .  A
O3628     Cr3645   1.980       .  S
O3628      C3629   1.264       .  A
C3629      O3630   1.271       .  A
C3629      C3701   1.501       .  S
O3630     Cr3646   2.021       .  S
O3631     Cr3646   1.991       .  S
O3631      C3632   1.263       .  A
C3632      O3633   1.260       .  A
C3632      C3653   1.474       .  S
O3633     Cr3647   1.982       .  S
O3634     Cr3647   1.995       .  S
O3634      C3635   1.263       .  A
C3635      C3821   1.475       .  S
O3636     Cr3645   1.996       .  S
O3636      C3644   1.264       .  A
O3637     Cr3645   1.989       .  S
O3637      C3638   1.257       .  A
C3638      O3639   1.259       .  A
C3638      C3802   1.476       .  S
O3639     Cr3646   1.990       .  S
O3640     Cr3646   2.007       .  S
O3640      C3641   1.267       .  A
C3641      O3642   1.267       .  A
C3641      C3850   1.504       .  S
O3642     Cr3647   1.998       .  S
O3643     Cr3647   1.986       .  S
O3643      C3644   1.261       .  A
C3644      C3682   1.478       .  S
Cr3645     O3648   1.773       .  S
Cr3646     O3648   1.768       .  S
Cr3647     O3648   1.771       .  S
C3649      C3650   1.410       .  A
C3649      C3654   1.404       .  A
C3649      C3663   1.443       .  S
C3650      C3655   1.479       .  S
C3650      C3651   1.399       .  A
C3651      C3652   1.396       .  A
C3651      H3670   1.084       .  S
C3652      C3653   1.413       .  A
C3652      C3664   1.445       .  S
C3653      C3654   1.404       .  A
C3654      H3669   1.084       .  S
C3655      C3656   1.396       .  A
C3655      C3660   1.411       .  A
C3656      C3657   1.395       .  A
C3656      H3671   1.086       .  S
C3657      C3658   1.420       .  A
C3658      C3659   1.404       .  A
C3659      C3660   1.404       .  A
C3659      H3672   1.085       .  S
C3660      C3662   1.443       .  S
C3661      N3665   1.158       .  T
C3662      N3666   1.157       .  T
C3663      N3668   1.157       .  T
C3664      N3667   1.157       .  T
C3673      C3674   1.410       .  A
C3673      C3678   1.394       .  A
C3673      C3687   1.445       .  S
C3674      C3679   1.486       .  S
C3674      C3675   1.407       .  A
C3675      C3676   1.405       .  A
C3675      H3694   1.080       .  S
C3676      C3677   1.412       .  A
C3676      C3688   1.443       .  S
C3677      C3678   1.407       .  A
C3678      H3693   1.081       .  S
C3679      C3680   1.400       .  A
C3679      C3684   1.414       .  A
C3680      C3681   1.395       .  A
C3680      H3695   1.094       .  S
C3681      C3682   1.415       .  A
C3681      C3685   1.445       .  S
C3682      C3683   1.404       .  A
C3683      C3684   1.403       .  A
C3683      H3696   1.084       .  S
C3684      C3686   1.444       .  S
C3685      N3689   1.157       .  T
C3686      N3690   1.157       .  T
C3687      N3692   1.157       .  T
C3688      N3691   1.157       .  T
C3697      C3698   1.410       .  A
C3697      C3702   1.404       .  A
C3697      C3711   1.444       .  S
C3698      C3703   1.492       .  S
C3698      C3699   1.402       .  A
C3699      C3700   1.403       .  A
C3699      H3718   1.086       .  S
C3700      C3701   1.421       .  A
C3700      C3712   1.444       .  S
C3701      C3702   1.412       .  A
C3702      H3717   1.084       .  S
C3703      C3704   1.401       .  A
C3703      C3708   1.411       .  A
C3704      C3705   1.401       .  A
C3704      H3719   1.085       .  S
C3705      C3706   1.420       .  A
C3705      C3709   1.444       .  S
C3706      C3707   1.409       .  A
C3707      C3708   1.405       .  A
C3707      H3720   1.083       .  S
C3708      C3710   1.444       .  S
C3709      N3713   1.157       .  T
C3710      N3714   1.157       .  T
C3711      N3716   1.157       .  T
C3712      N3715   1.157       .  T
C3721      C3722   1.409       .  A
C3721      C3726   1.404       .  A
C3721      C3735   1.444       .  S
C3722      C3727   1.494       .  S
C3722      C3723   1.403       .  A
C3723      C3724   1.406       .  A
C3723      H3742   1.085       .  S
C3724      C3725   1.422       .  A
C3724      C3736   1.444       .  S
C3725      C3726   1.411       .  A
C3726      H3741   1.084       .  S
C3727      C3728   1.403       .  A
C3728      H3743   1.086       .  S
C3729      C3730   1.418       .  A
C3730      C3731   1.408       .  A
C3731      C3732   1.404   1_655  A
C3731      H3744   1.085       .  S
C3732      C3734   1.443       .  S
C3733      N3737   1.158       .  T
C3734      N3738   1.157       .  T
C3736      N3739   1.158       .  T
C3745      C3746   1.409       .  A
C3745      C3750   1.402       .  A
C3745      C3759   1.443       .  S
C3746      C3751   1.471       .  S
C3746      C3747   1.396       .  A
C3747      C3748   1.392       .  A
C3747      H3766   1.085       .  S
C3748      C3749   1.413       .  A
C3748      C3760   1.445       .  S
C3749      C3750   1.403       .  A
C3750      H3765   1.085       .  S
C3751      C3752   1.401       .  A
C3751      C3756   1.406       .  A
C3752      C3753   1.399       .  A
C3752      H3767   1.084       .  S
C3753      C3754   1.412       .  A
C3754      C3755   1.405       .  A
C3755      C3756   1.397       .  A
C3755      H3768   1.084   1_565  S
C3756      C3758   1.445       .  S
C3757      N3761   1.157       .  T
C3758      N3762   1.157       .  T
C3759      N3764   1.157       .  T
C3760      N3763   1.157       .  T
C3769      C3770   1.414       .  A
C3769      C3774   1.401       .  A
C3769      C3783   1.444       .  S
C3770      C3775   1.479       .  S
C3770      C3771   1.398       .  A
C3771      C3772   1.392       .  A
C3771      H3790   1.085       .  S
C3772      C3773   1.416       .  A
C3772      C3784   1.446       .  S
C3773      C3774   1.401       .  A
C3774      H3789   1.084       .  S
C3775      C3776   1.405       .  A
C3775      C3780   1.406       .  A
C3776      C3777   1.400       .  A
C3776      H3791   1.085       .  S
C3777      C3778   1.413       .  A
C3777      C3781   1.444       .  S
C3778      C3779   1.409       .  A
C3779      C3780   1.394       .  A
C3779      H3792   1.085       .  S
C3780      C3782   1.445       .  S
C3781      N3785   1.157       .  T
C3782      N3786   1.157       .  T
C3783      N3788   1.157       .  T
C3784      N3787   1.157       .  T
C3793      C3794   1.410       .  A
C3793      C3807   1.443       .  S
C3794      C3799   1.479       .  S
C3794      C3795   1.398       .  A
C3795      H3814   1.085       .  S
C3796      C3797   1.410       .  A
C3796      C3808   1.444       .  S
C3797      C3798   1.402   1_655  A
C3798      H3813   1.085       .  S
C3799      C3800   1.403       .  A
C3799      C3804   1.407       .  A
C3800      C3801   1.401       .  A
C3800      H3815   1.085       .  S
C3801      C3802   1.411       .  A
C3801      C3805   1.445       .  S
C3802      C3803   1.406       .  A
C3803      C3804   1.399       .  A
C3803      H3816   1.084       .  S
C3804      C3806   1.444       .  S
C3805      N3809   1.157       .  T
C3806      N3810   1.157       .  T
C3807      N3812   1.157       .  T
C3808      N3811   1.157       .  T
C3817      C3818   1.409       .  A
C3817      C3822   1.396       .  A
C3817      C3831   1.445       .  S
C3818      C3823   1.486       .  S
C3818      C3819   1.407       .  A
C3819      C3820   1.406       .  A
C3819      H3838   1.084       .  S
C3820      C3821   1.409       .  A
C3820      C3832   1.443       .  S
C3821      C3822   1.403       .  A
C3822      H3837   1.083       .  S
C3823      C3824   1.404       .  A
C3823      C3828   1.406       .  A
C3824      C3825   1.401       .  A
C3824      H3839   1.085       .  S
C3825      C3826   1.416       .  A
C3825      C3829   1.444       .  S
C3826      C3827   1.411       .  A
C3827      C3828   1.400       .  A
C3827      H3840   1.085       .  S
C3828      C3830   1.444       .  S
C3829      N3833   1.157       .  T
C3830      N3834   1.157       .  T
C3831      N3836   1.157       .  T
C3832      N3835   1.157       .  T
C3841      C3842   1.408       .  A
C3841      C3846   1.402       .  A
C3841      C3855   1.444       .  S
C3842      C3847   1.493       .  S
C3843      C3844   1.409       .  A
C3843      H3862   1.085       .  S
C3844      C3845   1.420       .  A
C3844      C3856   1.443       .  S
C3846      H3861   1.085       .  S
C3847      C3848   1.399       .  A
C3847      C3852   1.410       .  A
C3848      C3849   1.403       .  A
C3848      H3863   1.088       .  S
C3849      C3850   1.424       .  A
C3849      C3853   1.444       .  S
C3850      C3851   1.411       .  A
C3851      C3852   1.407       .  A
C3851      H3864   1.089       .  S
C3852      C3854   1.443       .  S
C3853      N3857   1.158       .  T
C3854      N3858   1.157       .  T
C3855      N3860   1.157       .  T
C3856      N3859   1.157       .  T
C3865      C3866   1.403       .  A
C3865      C3870   1.394       .  A
C3865      C3879   1.444       .  S
C3866      C3871   1.478       .  S
C3866      C3867   1.403       .  A
C3867      C3868   1.402       .  A
C3868      C3869   1.418       .  A
C3868      C3880   1.444       .  S
C3869      C3870   1.410       .  A
C3870      H3885   1.085       .  S
C3871      C3872   1.404       .  A
C3871      C3876   1.406       .  A
C3872      C3873   1.403       .  A
C3872      H3887   1.085       .  S
C3873      C3877   1.443       .  S
C3874      C3875   1.408   1_655  A
C3875      H3888   1.085       .  S
C3877      N3881   1.157       .  T
C3878      N3882   1.157       .  T
C3879      N3884   1.157       .  T
C3880      N3883   1.158       .  T
C3889      C3890   1.413       .  A
C3889      C3903   1.443       .  S
C3890      C3895   1.488       .  S
C3890      C3891   1.399       .  A
C3891      C3892   1.397       .  A
C3891      H3910   1.085       .  S
C3892      C3904   1.446       .  S
C3893      C3894   1.403   1_565  A
C3894      H3909   1.084       .  S
C3895      C3896   1.401       .  A
C3895      C3900   1.412       .  A
C3896      C3897   1.399       .  A
C3896      H3911   1.085       .  S
C3897      C3898   1.417       .  A
C3897      C3901   1.444       .  S
C3898      C3899   1.405       .  A
C3899      C3900   1.403       .  A
C3899      H3912   1.085       .  S
C3900      C3902   1.444       .  S
C3901      N3905   1.157       .  T
C3903      N3908   1.157       .  T
C3904      N3907   1.157       .  T
C3913      C3914   1.413       .  A
C3913      C3918   1.407       .  A
C3914      C3919   1.505       .  S
C3914      C3915   1.406       .  A
C3915      C3916   1.405       .  A
C3915      H3934   1.084       .  S
C3916      C3917   1.420       .  A
C3916      C3928   1.444       .  S
C3917      C3918   1.411       .  A
C3918      H3933   1.083       .  S
C3919      C3924   1.412       .  A
C3920      C3921   1.409       .  A
C3920      H3935   1.084       .  S
C3921      C3922   1.418   1_545  A
C3921      C3925   1.443   1_545  S
C3923      C3924   1.402       .  A
C3923      H3936   1.084       .  S
C3924      C3926   1.445       .  S
C3925      N3929   1.157       .  T
C3926      N3930   1.157       .  T
C3927      N3932   1.157   1_545  T
C3928      N3931   1.157       .  T
C3937      C3938   1.407       .  A
C3937      C3942   1.400       .  A
C3937      C3951   1.444       .  S
C3938      C3943   1.480       .  S
C3938      C3939   1.399       .  A
C3939      C3940   1.401       .  A
C3939      H3958   1.085       .  S
C3940      C3941   1.421       .  A
C3941      C3942   1.408       .  A
C3942      H3957   1.084       .  S
C3943      C3944   1.398       .  A
C3943      C3948   1.411       .  A
C3944      C3945   1.395       .  A
C3944      H3959   1.085       .  S
C3945      C3946   1.418       .  A
C3945      C3949   1.446       .  S
C3946      C3947   1.403       .  A
C3947      C3948   1.403       .  A
C3947      H3960   1.084       .  S
C3948      C3950   1.443       .  S
C3949      N3953   1.157       .  T
C3950      N3954   1.157       .  T
C3951      N3956   1.157       .  T
C3952      N3955   1.158       .  T
C3961      C3962   1.414       .  A
C3961      C3966   1.404       .  A
C3961      C3975   1.444       .  S
C3962      C3967   1.486       .  S
C3962      C3963   1.397       .  A
C3963      C3964   1.398       .  A
C3963      H3982   1.086       .  S
C3964      C3965   1.421       .  A
C3964      C3976   1.446       .  S
C3965      C3966   1.403       .  A
C3966      H3981   1.084       .  S
C3967      C3968   1.406       .  A
C3967      C3972   1.407       .  A
C3968      C3969   1.405       .  A
C3968      H3983   1.084       .  S
C3969      C3970   1.412       .  A
C3969      C3973   1.444       .  S
C3970      C3971   1.408       .  A
C3971      C3972   1.398       .  A
C3971      H3984   1.084       .  S
C3972      C3974   1.444       .  S
C3973      N3977   1.157       .  T
C3974      N3978   1.157       .  T
C3975      N3980   1.157       .  T
C3976      N3979   1.157       .  T
C3985      C3986   1.410       .  A
C3985      C3990   1.399       .  A
C3985      C3999   1.444       .  S
C3986      C3991   1.475       .  S
C3986      C3987   1.396       .  A
C3987      C3988   1.395       .  A
C3987      H4006   1.086       .  S
C3988      C3989   1.420       .  A
C3989      C3990   1.402       .  A
C3990      H4005   1.085       .  S
C3991      C3992   1.399       .  A
C3991      C3996   1.408       .  A
C3992      C3993   1.396       .  A
C3992      H4007   1.084       .  S
C3993      C3994   1.415       .  A
C3993      C3997   1.445       .  S
C3994      C3995   1.405       .  A
C3995      C3996   1.399       .  A
C3995      H4008   1.084       .  S
C3996      C3998   1.444       .  S
C3997      N4001   1.157       .  T
C3998      N4002   1.157       .  T
C3999      N4004   1.157       .  T
C4000      N4003   1.158       .  T
C4009      C4010   1.412       .  A
C4009      C4014   1.402       .  A
C4009      C4023   1.444       .  S
C4010      C4015   1.479       .  S
C4010      C4011   1.397       .  A
C4011      C4012   1.396       .  A
C4011      H4030   1.086       .  S
C4012      C4013   1.416       .  A
C4012      C4024   1.445       .  S
C4013      C4014   1.402       .  A
C4014      H4029   1.085       .  S
C4015      C4016   1.402       .  A
C4015      C4020   1.404       .  A
C4016      C4017   1.403       .  A
C4016      H4031   1.085       .  S
C4017      C4018   1.417       .  A
C4017      C4021   1.444       .  S
C4018      C4019   1.410       .  A
C4019      C4020   1.396       .  A
C4019      H4032   1.084       .  S
C4020      C4022   1.444       .  S
C4021      N4025   1.157       .  T
C4022      N4026   1.157       .  T
C4023      N4028   1.157       .  T
C4024      N4027   1.157       .  T
C4033      C4034   1.410       .  A
C4033      C4038   1.405       .  A
C4033      C4047   1.444       .  S
C4034      C4039   1.487       .  S
C4034      C4035   1.402       .  A
C4035      C4036   1.403       .  A
C4035      H4054   1.085       .  S
C4036      C4037   1.414       .  A
C4036      C4048   1.443       .  S
C4037      C4038   1.407       .  A
C4038      H4053   1.085       .  S
C4039      C4040   1.401       .  A
C4039      C4044   1.407       .  A
C4041      C4042   1.422       .  A
C4041      C4045   1.445       .  S
C4043      C4044   1.403   1_455  A
C4043      H4056   1.084       .  S
C4044      C4046   1.444       .  S
C4045      N4049   1.157       .  T
C4046      N4050   1.157       .  T
C4047      N4052   1.157       .  T
C4048      N4051   1.157       .  T
C4057      C4062   1.395       .  A
C4057      C4071   1.445       .  S
C4058      C4063   1.482       .  S
C4058      C4059   1.405       .  A
C4059      C4060   1.403       .  A
C4059      H4078   1.085       .  S
C4060      C4072   1.444       .  S
C4061      C4062   1.408       .  A
C4062      H4077   1.085       .  S
C4063      C4064   1.404       .  A
C4063      C4068   1.409       .  A
C4064      C4065   1.401       .  A
C4064      H4079   1.084       .  S
C4065      C4066   1.412       .  A
C4065      C4069   1.444       .  S
C4066      C4067   1.406       .  A
C4067      C4068   1.396       .  A
C4067      H4080   1.085       .  S
C4068      C4070   1.445       .  S
C4069      N4073   1.157       .  T
C4070      N4074   1.157       .  T
C4071      N4076   1.157       .  T
C4072      N4075   1.157       .  T
C4081      C4082   1.406       .  A
C4081      C4086   1.397       .  A
C4081      C4095   1.444       .  S
C4082      C4087   1.482       .  S
C4082      C4083   1.403       .  A
C4083      C4084   1.402       .  A
C4083      H4102   1.085       .  S
C4084      C4085   1.416       .  A
C4084      C4096   1.443       .  S
C4085      C4086   1.409       .  A
C4086      H4101   1.085       .  S
C4087      C4092   1.409       .  A
C4088      C4089   1.402       .  A
C4088      H4103   1.085       .  S
C4089      C4090   1.415       .  A
C4089      C4093   1.442       .  S
C4091      C4092   1.395       .  A
C4091      H4104   1.086       .  S
C4092      C4094   1.443       .  S
C4093      N4097   1.157       .  T
C4094      N4098   1.157       .  T
C4095      N4100   1.157       .  T
C4096      N4099   1.157       .  T
C4105      C4106   1.409       .  A
C4105      C4110   1.401       .  A
C4105      C4119   1.444       .  S
C4106      C4111   1.487       .  S
C4106      C4107   1.401       .  A
C4107      C4108   1.404       .  A
C4107      H4126   1.084       .  S
C4108      C4109   1.422       .  A
C4108      C4120   1.445       .  S
C4109      C4110   1.409       .  A
C4110      H4125   1.084       .  S
C4111      C4112   1.400   1_565  A
C4111      C4116   1.409       .  A
C4112      H4127   1.085       .  S
C4113      C4114   1.417       .  A
C4113      C4117   1.444       .  S
C4114      C4115   1.407       .  A
C4115      H4128   1.085       .  S
C4116      C4118   1.445       .  S
C4117      N4121   1.157       .  T
C4118      N4122   1.157       .  T
C4119      N4124   1.157       .  T
C4120      N4123   1.158       .  T
C4129      C4130   1.409       .  A
C4129      C4134   1.408       .  A
C4129      C4143   1.443       .  S
C4130      C4135   1.493       .  S
C4130      C4131   1.400       .  A
C4131      C4132   1.404       .  A
C4131      H4150   1.085       .  S
C4132      C4133   1.423       .  A
C4132      C4144   1.444       .  S
C4133      C4134   1.412       .  A
C4134      H4149   1.084       .  S
C4135      C4136   1.403       .  A
C4135      C4140   1.408       .  A
C4136      C4137   1.408       .  A
C4136      H4151   1.085       .  S
C4137      C4138   1.421       .  A
C4137      C4141   1.445       .  S
C4138      C4139   1.411       .  A
C4139      C4140   1.404       .  A
C4139      H4152   1.085       .  S
C4140      C4142   1.444       .  S
C4141      N4145   1.158       .  T
C4142      N4146   1.157       .  T
C4143      N4148   1.157       .  T
C4144      N4147   1.157       .  T
C4153      C4154   1.409       .  A
C4153      C4158   1.405       .  A
C4153      C4167   1.443   1_565  S
C4154      C4159   1.491       .  S
C4154      C4155   1.402       .  A
C4155      C4156   1.404       .  A
C4155      H4174   1.085       .  S
C4156      C4157   1.419       .  A
C4156      C4168   1.444       .  S
C4157      C4158   1.409       .  A
C4158      H4173   1.084       .  S
C4159      C4160   1.401       .  A
C4159      C4164   1.410       .  A
C4160      H4175   1.085       .  S
C4161      C4162   1.418       .  A
C4161      C4165   1.444       .  S
C4162      C4163   1.410       .  A
C4163      H4176   1.084       .  S
C4164      C4166   1.443       .  S
C4165      N4169   1.157       .  T
C4166      N4170   1.157       .  T
C4168      N4171   1.157       .  T
C4177      C4178   1.411       .  A
C4177      C4182   1.398       .  A
C4177      C4191   1.445       .  S
C4178      C4183   1.484       .  S
C4178      C4179   1.403       .  A
C4179      C4180   1.398       .  A
C4179      H4198   1.085       .  S
C4180      C4181   1.417       .  A
C4180      C4192   1.445       .  S
C4181      C4182   1.406       .  A
C4182      H4197   1.084       .  S
C4183      C4184   1.398       .  A
C4183      C4188   1.414       .  A
C4184      C4185   1.392       .  A
C4184      H4199   1.085       .  S
C4185      C4186   1.419       .  A
C4185      C4189   1.446       .  S
C4186      C4187   1.405       .  A
C4187      C4188   1.403       .  A
C4187      H4200   1.084       .  S
C4188      C4190   1.444       .  S
C4189      N4193   1.157       .  T
C4190      N4194   1.157       .  T
C4191      N4196   1.157       .  T
C4192      N4195   1.158       .  T
C4201      C4202   1.408       .  A
C4201      C4206   1.395       .  A
C4201      C4215   1.445       .  S
C4202      C4207   1.486       .  S
C4202      C4203   1.407       .  A
C4203      C4204   1.405       .  A
C4203      H4222   1.085       .  S
C4204      C4205   1.411       .  A
C4204      C4216   1.442       .  S
C4205      C4206   1.408       .  A
C4206      H4221   1.085       .  S
C4207      C4208   1.404       .  A
C4207      C4212   1.413       .  A
C4208      C4209   1.399       .  A
C4208      H4223   1.085       .  S
C4209      C4210   1.408       .  A
C4209      C4213   1.444       .  S
C4210      C4211   1.402       .  A
C4211      C4212   1.402       .  A
C4211      H4224   1.085       .  S
C4212      C4214   1.444       .  S
C4213      N4217   1.157       .  T
C4214      N4218   1.157       .  T
C4215      N4220   1.157       .  T
C4216      N4219   1.157       .  T
C4225      C4226   1.407       .  A
C4225      C4230   1.393       .  A
C4225      C4239   1.446       .  S
C4226      C4231   1.489       .  S
C4226      C4227   1.407       .  A
C4227      C4228   1.409       .  A
C4227      H4246   1.084       .  S
C4228      C4229   1.417       .  A
C4228      C4240   1.443       .  S
C4229      C4230   1.411       .  A
C4230      H4245   1.084       .  S
C4231      C4232   1.406       .  A
C4231      C4236   1.410       .  A
C4232      C4233   1.401       .  A
C4232      H4247   1.084       .  S
C4233      C4234   1.411       .  A
C4233      C4237   1.444       .  S
C4234      C4235   1.407       .  A
C4235      C4236   1.401       .  A
C4235      H4248   1.084       .  S
C4236      C4238   1.444       .  S
C4237      N4241   1.157       .  T
C4238      N4242   1.157       .  T
C4239      N4244   1.157       .  T
C4240      N4243   1.157       .  T
C4249      C4250   1.413       .  A
C4249      C4254   1.403       .  A
C4249      C4263   1.444       .  S
C4250      C4255   1.482       .  S
C4250      C4251   1.399       .  A
C4251      C4252   1.398       .  A
C4251      H4270   1.084       .  S
C4252      C4253   1.413       .  A
C4252      C4264   1.445       .  S
C4253      C4254   1.401       .  A
C4254      H4269   1.085       .  S
C4255      C4256   1.398       .  A
C4256      C4257   1.396       .  A
C4256      H4271   1.085       .  S
C4257      C4261   1.445       .  S
C4258      C4259   1.406       .  A
C4259      C4260   1.405       .  A
C4259      H4272   1.084       .  S
C4260      C4262   1.443       .  S
C4261      N4265   1.157       .  T
C4262      N4266   1.157       .  T
C4263      N4268   1.157   1_565  T
C4264      N4267   1.157       .  T
C4273      C4274   1.411       .  A
C4273      C4287   1.444       .  S
C4274      C4279   1.495       .  S
C4274      C4275   1.405       .  A
C4275      H4294   1.085       .  S
C4276      C4277   1.420       .  A
C4276      C4288   1.443       .  S
C4277      C4278   1.410       .  A
C4278      H4293   1.085   1_565  S
C4279      C4280   1.403       .  A
C4279      C4284   1.413       .  A
C4280      C4281   1.404       .  A
C4280      H4295   1.085       .  S
C4281      C4282   1.419       .  A
C4281      C4285   1.444       .  S
C4282      C4283   1.408       .  A
C4283      C4284   1.403       .  A
C4283      H4296   1.085       .  S
C4284      C4286   1.444       .  S
C4285      N4289   1.157       .  T
C4286      N4290   1.157       .  T
C4287      N4292   1.157       .  T
C4288      N4291   1.157       .  T
C4297      C4298   1.408       .  A
C4297      C4302   1.402       .  A
C4297      C4311   1.443       .  S
C4298      C4303   1.477       .  S
C4299      C4300   1.400       .  A
C4299      H4318   1.085       .  S
C4300      C4301   1.415   1_545  A
C4300      C4312   1.445       .  S
C4302      H4317   1.084       .  S
C4303      C4304   1.395       .  A
C4303      C4308   1.408       .  A
C4304      C4305   1.397       .  A
C4304      H4319   1.086       .  S
C4305      C4306   1.424       .  A
C4305      C4309   1.445       .  S
C4306      C4307   1.407       .  A
C4307      C4308   1.402       .  A
C4307      H4320   1.085       .  S
C4309      N4313   1.158       .  T
C4310      N4314   1.157   1_545  T
C4311      N4316   1.157       .  T
C4312      N4315   1.157       .  T
C4321      C4322   1.409       .  A
C4321      C4326   1.395       .  A
C4321      C4335   1.445       .  S
C4322      C4327   1.481       .  S
C4322      C4323   1.405       .  A
C4323      C4324   1.400       .  A
C4323      H4342   1.085       .  S
C4324      C4325   1.411       .  A
C4324      C4336   1.444       .  S
C4325      C4326   1.404       .  A
C4326      H4341   1.084       .  S
C4327      C4328   1.407       .  A
C4327      C4332   1.407       .  A
C4328      C4329   1.405       .  A
C4328      H4343   1.084       .  S
C4329      C4330   1.413       .  A
C4329      C4333   1.444       .  S
C4330      C4331   1.406       .  A
C4331      C4332   1.390       .  A
C4331      H4344   1.085       .  S
C4332      C4334   1.446       .  S
C4333      N4337   1.158       .  T
C4334      N4338   1.157       .  T
C4335      N4340   1.157       .  T
C4336      N4339   1.157       .  T
C4345      C4346   1.409       .  A
C4345      C4350   1.404       .  A
C4345      C4359   1.444       .  S
C4346      C4351   1.490       .  S
C4346      C4347   1.402       .  A
C4347      C4348   1.404       .  A
C4347      H4366   1.085       .  S
C4348      C4349   1.420       .  A
C4348      C4360   1.444       .  S
C4349      C4350   1.411       .  A
C4350      H4365   1.085       .  S
C4351      C4352   1.403       .  A
C4351      C4356   1.410       .  A
C4352      C4353   1.405       .  A
C4352      H4367   1.084       .  S
C4353      C4354   1.416       .  A
C4353      C4357   1.443   1_556  S
C4354      C4355   1.406       .  A
C4355      C4356   1.403       .  A
C4355      H4368   1.084       .  S
C4356      C4358   1.443       .  S
C4357      N4361   1.157       .  T
C4358      N4362   1.157       .  T
C4359      N4364   1.157       .  T
C4360      N4363   1.157       .  T
C4369      C4374   1.403       .  A
C4369      C4383   1.444       .  S
C4370      C4375   1.496       .  S
C4370      C4371   1.403       .  A
C4371      C4372   1.408       .  A
C4371      H4390   1.085       .  S
C4372      C4384   1.444       .  S
C4373      C4374   1.410       .  A
C4374      H4389   1.085       .  S
C4375      C4376   1.404       .  A
C4375      C4380   1.411       .  A
C4376      C4377   1.407       .  A
C4376      H4391   1.085       .  S
C4377      C4378   1.419       .  A
C4377      C4381   1.444       .  S
C4378      C4379   1.410       .  A
C4379      C4380   1.403       .  A
C4379      H4392   1.085       .  S
C4380      C4382   1.444       .  S
C4381      N4385   1.158       .  T
C4382      N4386   1.157       .  T
C4383      N4388   1.157       .  T
C4384      N4387   1.157       .  T
C4393      C4394   1.415       .  A
C4393      C4398   1.407       .  A
C4393      C4407   1.444       .  S
C4394      C4399   1.509       .  S
C4394      C4395   1.408       .  A
C4395      C4396   1.408       .  A
C4395      H4414   1.084       .  S
C4396      C4397   1.419       .  A
C4396      C4408   1.444       .  S
C4397      C4398   1.410       .  A
C4398      H4413   1.084       .  S
C4399      C4400   1.408       .  A
C4399      C4404   1.414       .  A
C4400      C4401   1.409       .  A
C4400      H4415   1.083       .  S
C4401      C4402   1.419       .  A
C4401      C4405   1.444       .  S
C4402      C4403   1.410       .  A
C4403      C4404   1.407       .  A
C4403      H4416   1.084       .  S
C4404      C4406   1.444       .  S
C4405      N4409   1.157       .  T
C4406      N4410   1.157       .  T
C4407      N4412   1.157       .  T
C4408      N4411   1.157       .  T
C4417      C4418   1.409       .  A
C4417      C4422   1.395       .  A
C4417      C4431   1.445       .  S
C4418      C4423   1.477       .  S
C4418      C4419   1.399       .  A
C4419      C4420   1.398       .  A
C4419      H4438   1.085       .  S
C4420      C4421   1.419       .  A
C4420      C4432   1.445       .  S
C4421      C4422   1.407       .  A
C4422      H4437   1.085       .  S
C4423      C4424   1.404       .  A
C4423      C4428   1.404       .  A
C4424      C4425   1.404       .  A
C4424      H4439   1.085       .  S
C4425      C4426   1.416       .  A
C4425      C4429   1.443       .  S
C4426      C4427   1.411       .  A
C4427      C4428   1.390       .  A
C4428      C4430   1.446       .  S
C4429      N4433   1.157       .  T
C4430      N4434   1.157       .  T
C4431      N4436   1.157       .  T
C4441      C4442   1.407       .  A
C4441      C4446   1.396       .  A
C4441      C4455   1.444       .  S
C4442      C4447   1.482       .  S
C4442      C4443   1.405       .  A
C4443      C4444   1.404       .  A
C4443      H4462   1.084       .  S
C4444      C4445   1.411       .  A
C4444      C4456   1.443       .  S
C4445      C4446   1.407       .  A
C4446      H4461   1.085       .  S
C4447      C4448   1.397       .  A
C4447      C4452   1.411       .  A
C4448      C4449   1.397       .  A
C4448      H4463   1.087       .  S
C4449      C4450   1.421       .  A
C4449      C4453   1.445       .  S
C4450      C4451   1.405       .  A
C4451      C4452   1.403       .  A
C4451      H4464   1.086       .  S
C4452      C4454   1.444       .  S
C4453      N4457   1.157       .  T
C4454      N4458   1.157       .  T
C4455      N4460   1.157       .  T
C4456      N4459   1.157       .  T
C4465      C4466   1.411   1_554  A
C4465      C4470   1.403       .  A
C4465      C4479   1.443       .  S
C4466      C4471   1.479       .  S
C4466      C4467   1.397       .  A
C4467      C4468   1.397       .  A
C4467      H4486   1.085       .  S
C4468      C4469   1.418   1_556  A
C4468      C4480   1.445       .  S
C4469      C4470   1.405       .  A
C4470      H4485   1.084       .  S
C4471      C4472   1.404       .  A
C4472      C4473   1.405       .  A
C4472      H4487   1.085       .  S
C4473      C4477   1.444       .  S
C4474      C4475   1.404       .  A
C4475      C4476   1.397       .  A
C4475      H4488   1.085       .  S
C4476      C4478   1.444       .  S
C4477      N4481   1.157       .  T
C4478      N4482   1.157       .  T
C4479      N4484   1.157       .  T
C4480      N4483   1.157       .  T
C4489      C4490   1.412       .  A
C4489      C4494   1.403       .  A
C4489      C4503   1.443       .  S
C4490      C4495   1.483       .  S
C4490      C4491   1.399       .  A
C4491      C4492   1.394       .  A
C4491      H4510   1.086       .  S
C4492      C4493   1.418       .  A
C4492      C4504   1.446       .  S
C4493      C4494   1.405       .  A
C4494      H4509   1.084       .  S
C4495      C4496   1.400       .  A
C4495      C4500   1.412       .  A
C4496      C4497   1.398       .  A
C4496      H4511   1.085       .  S
C4497      C4498   1.418       .  A
C4497      C4501   1.445       .  S
C4498      C4499   1.402       .  A
C4499      C4500   1.400       .  A
C4499      H4512   1.085       .  S
C4500      C4502   1.444       .  S
C4501      N4505   1.157       .  T
C4502      N4506   1.157       .  T
C4503      N4508   1.157       .  T
C4504      N4507   1.157   1_554  T
