geometry optimzed in LAMMPS
_audit_creation_date              2020-11-30 
_audit_creation_method            'lammps2cif' 
_symmetry_space_group_name_H-M    'P1' 
_symmetry_Int_Tables_number       1 
_symmetry_cell_setting            triclinic 
loop_ 
_symmetry_equiv_pos_as_xyz 
  x,y,z 
_cell_length_a                    61.66753792 
_cell_length_b                    61.73057727320833 
_cell_length_c                    46.25840173040909 
_cell_angle_alpha                 90.07619673285805 
_cell_angle_beta                  89.92923048670431 
_cell_angle_gamma                 120.1050755800217 
loop_ 
_atom_site_label 
_atom_site_type_symbol 
_atom_site_fract_x 
_atom_site_fract_y 
_atom_site_fract_z 
_atom_site_charge 
O1          O  0.08336794  0.45429642  0.29603412    -0.55600
C2          C  0.04974436  0.39842065  0.32661998     0.77000
O3          O  0.07683420  0.41399771  0.23402935    -0.56800
C4          C  0.10240034  0.47144234  0.28341030     0.77000
C5          C  0.13291617  0.42089929  0.31622993     0.79400
Cd6        Cd  0.09017761  0.41958463  0.28622080     1.37500
O7          O  0.05643109  0.41871659  0.31343937    -0.55600
O8          O  0.11682293  0.42490202  0.32804943    -0.54400
C9          C  0.06193660  0.39058799  0.23547510     0.79300
O10         O  0.12964168  0.41592468  0.28937905    -0.56800
O11         O  0.06187888  0.38738235  0.32083720    -0.55300
O12         O  0.11626636  0.46463272  0.27064283    -0.55200
O13         O  0.06291726  0.38040924  0.25875131    -0.54400
O14         O  0.35275904  0.45430616  0.43315132    -0.55600
C15         C  0.31922368  0.39521743  0.40112816     0.77000
O16         O  0.33002928  0.39116625  0.47310784    -0.56800
C17         C  0.35892611  0.46786094  0.45556674     0.77000
C18         C  0.26945171  0.41907578  0.43757184     0.79400
Cd19       Cd  0.31513213  0.41815867  0.45278836     1.37500
O20         O  0.33097782  0.41871788  0.40465492    -0.55600
O21         O  0.28987339  0.43873557  0.44327220    -0.54400
C22         C  0.32478842  0.39193215  0.49932696     0.79300
O23         O  0.26898586  0.39880460  0.44326805    -0.56800
O24         O  0.30524963  0.38217262  0.42171246    -0.55300
O25         O  0.34467680  0.45845482  0.47732773    -0.55200
O26         O  0.31371023  0.40418779  0.50461149    -0.54400
O27         O  0.54572584  0.62463730  0.46159142    -0.55600
C28         C  0.60108480  0.64689343  0.98844315     0.77000
O29         O  0.61483923  0.67750588  0.41867892    -0.56800
C30         C  0.52744769  0.62622497  0.45182961     0.77000
C31         C  0.58117684  0.71063415  0.48193148     0.79400
Cd32       Cd  0.57873831  0.66728886  0.45196910     1.37500
O33         O  0.57738286  0.63521766  0.98975348    -0.55600
O34         O  0.58382692  0.69373155  0.49366952    -0.54400
C35         C  0.60190672  0.66427822  0.39760018     0.79300
O36         O  0.57784475  0.70848974  0.45473448    -0.56800
O37         O  0.57989949  0.64176730  0.49123576    -0.55300
O38         O  0.53278470  0.64729510  0.44123817    -0.55200
O39         O  0.57850131  0.65528992  0.40015600    -0.54400
O40         O  0.53653559  0.88237606  0.09805204    -0.55600
C41         C  0.59314561  0.91395144  0.06238113     0.77000
O42         O  0.59761506  0.90342255  0.16421369    -0.56800
C43         C  0.52422785  0.87585872  0.12137974     0.77000
C44         C  0.58084708  0.84483849  0.10249425     0.79400
Cd45       Cd  0.57573957  0.88787320  0.11607682     1.37500
O46         O  0.57006983  0.90102540  0.06838654    -0.55600
O47         O  0.56078144  0.84228692  0.11311781    -0.54400
C48         C  0.60303324  0.92588553  0.15977975     0.79300
O49         O  0.59919215  0.86693905  0.10196555    -0.56800
O50         O  0.60818471  0.91443398  0.08129185    -0.55300
O51         O  0.53556315  0.87376285  0.14315722    -0.55200
O52         O  0.59563242  0.92986920  0.13602990    -0.54400
O53         O  0.37195508  0.90941377  0.14126846    -0.55600
C54         C  0.35246213  0.95304246  0.16159237     0.77000
O55         O  0.36182504  0.93782552  0.08160868    -0.56800
C56         C  0.37141608  0.89332577  0.12396256     0.77000
C57         C  0.29200715  0.87259005  0.14997626     0.79400
Cd58       Cd  0.33707356  0.91212175  0.12240975     1.37500
O59         O  0.36538222  0.94268490  0.15710039    -0.55600
O60         O  0.30979521  0.89064547  0.16313471    -0.54400
C61         C  0.34554230  0.94169055  0.07006663     0.79300
O62         O  0.29440612  0.87244535  0.12268301    -0.56800
O63         O  0.33227723  0.94458523  0.14736919    -0.55300
O64         O  0.35394554  0.88480681  0.10530768    -0.55200
O65         O  0.32368043  0.92940438  0.08074882    -0.54400
O66         O  0.10793531  0.64669356  0.26716774    -0.55600
C67         C  0.08331945  0.67632916  0.23393712     0.77000
O68         O  0.09959587  0.68348448  0.33869053    -0.56800
C69         C  0.11829774  0.64199404  0.28784346     0.77000
C70         C  0.15630529  0.73241121  0.26932149     0.79400
Cd71       Cd  0.11182022  0.68537940  0.28581798     1.37500
O72         O  0.09687316  0.66670801  0.23865315    -0.55600
O73         O  0.15683408  0.71246490  0.27338085    -0.54400
C74         C  0.07696753  0.67696490  0.33312245     0.79300
O75         O  0.13623499  0.73164872  0.27688133    -0.56800
O76         O  0.08307230  0.69060158  0.25344531    -0.55300
O77         O  0.12591619  0.65756234  0.30862481    -0.55200
O78         O  0.07169031  0.67588262  0.30664662    -0.54400
O79         O  0.91496342  0.53861009  0.06022856    -0.55600
C80         C  0.95446528  0.60152241  0.07945562     0.77000
O81         O  0.93454767  0.61681815  0.50224060    -0.56800
C82         C  0.89750132  0.52181933  0.04518643     0.77000
C83         C  0.86894584  0.57469521  0.07038325     0.79400
Cd84       Cd  0.91150698  0.57400962  0.04322537     1.37500
O85         O  0.94324296  0.57792860  0.07726465    -0.55600
O86         O  0.88753735  0.57657151  0.08394993    -0.54400
C87         C  0.93873509  0.60468337  0.48312166     0.79300
O88         O  0.87007128  0.57361756  0.04305879    -0.56800
O89         O  0.94551985  0.61256304  0.06489699    -0.55300
O90         O  0.88604282  0.52913726  0.02863041    -0.55200
O91         O  0.92847637  0.57316668  0.99479863    -0.54400
O92         O  0.63928464  0.53837093  0.17508285    -0.55600
C93         C  0.67681126  0.59275039  0.13734954     0.77000
O94         O  0.68206522  0.58896278  0.24370183    -0.56800
C95         C  0.63524776  0.52332014  0.19561308     0.77000
C96         C  0.72561444  0.57325881  0.18033655     0.79400
Cd97       Cd  0.67893393  0.57271209  0.19250314     1.37500
O98         O  0.66575267  0.56947667  0.14230607    -0.55600
O99         O  0.70564945  0.55311672  0.18621867    -0.54400
C100        C  0.66860693  0.59882823  0.23914265     0.79300
O101        O  0.72480504  0.59312403  0.18425423    -0.56800
O102        O  0.68905722  0.60697167  0.15818912    -0.55300
O103        O  0.65192567  0.53094058  0.21514062    -0.55200
O104        O  0.66104942  0.59725805  0.21344856    -0.54400
O105        O  0.63616397  0.05062617  0.39560139    -0.55600
C106        C  0.63328578  0.10378297  0.37234022     0.77000
O107        O  0.70505144  0.12906495  0.36720900    -0.56800
C108        C  0.65035695  0.04257067  0.40394971     0.77000
C109        C  0.66413091  0.05976645  0.31274260     0.79400
Cd110      Cd  0.66802198  0.08540201  0.36701921     1.37500
O111        O  0.63685542  0.09192249  0.39230077    -0.55600
O112        O  0.68442120  0.06989090  0.32692602    -0.54400
C113        C  0.71372216  0.12657003  0.39102957     0.79300
O114        O  0.64727544  0.06377628  0.32224121    -0.56800
O115        O  0.64676968  0.10823638  0.34994105    -0.55300
O116        O  0.67270103  0.05428285  0.39484842    -0.55200
O117        O  0.70218370  0.10504812  0.40223297    -0.54400
O118        O  0.88699616  0.34557992  0.02414549    -0.55600
C119        C  0.92078144  0.33525116  0.48380384     0.77000
O120        O  0.89935790  0.31168592  0.09588149    -0.56800
C121        C  0.87787088  0.35011012  0.04626742     0.77000
C122        C  0.84380001  0.26329110  0.02392825     0.79400
Cd123      Cd  0.88807145  0.30935709  0.04298241     1.37500
O124        O  0.92404453  0.34814613  0.50632983    -0.55600
O125        O  0.84146531  0.28752057  0.51756251    -0.54400
C126        C  0.92008818  0.31256608  0.09142199     0.79300
O127        O  0.86201162  0.26304323  0.03621176    -0.56800
O128        O  0.90398291  0.30123906  0.99799586    -0.55300
O129        O  0.87243915  0.33505215  0.06729424    -0.55200
O130        O  0.92433380  0.30950511  0.06547600    -0.54400
O131        O  0.37667291  0.32205241  0.22417451    -0.55600
C132        C  0.46659212  0.36497814  0.20287069     0.77000
O133        O  0.40047002  0.29320446  0.23909348    -0.56800
C134        C  0.38812167  0.33877887  0.24317442     0.77000
C135        C  0.39239365  0.33309757  0.15010217     0.79400
Cd136      Cd  0.41467638  0.32604837  0.20259086     1.37500
O137        O  0.45091004  0.36308239  0.22174732    -0.55600
O138        O  0.38685775  0.31111105  0.15764992    -0.54400
C139        C  0.41184992  0.28215465  0.23069702     0.79300
O140        O  0.40888189  0.35050743  0.16532109    -0.56800
O141        O  0.45854519  0.34775746  0.18395006    -0.55300
O142        O  0.41180918  0.34947986  0.24298720    -0.55200
O143        O  0.42335423  0.28977171  0.20676348    -0.54400
O144        O  0.39297993  0.07655906  0.34167851    -0.55600
C145        C  0.47543215  0.11353803  0.37463156     0.77000
O146        O  0.44348868  0.15333583  0.35753791    -0.56800
C147        C  0.40673427  0.07990535  0.31989871     0.77000
C148        C  0.40087182  0.07593055  0.42049005     0.79400
Cd149      Cd  0.42626219  0.10877091  0.37145747     1.37500
O150        O  0.45879266  0.09954892  0.35670892    -0.55600
O151        O  0.41921671  0.09787740  0.42443926    -0.54400
C152        C  0.42286097  0.15289570  0.35545927     0.79300
O153        O  0.39361800  0.07041286  0.39465777    -0.56800
O154        O  0.46933182  0.12557938  0.39191426    -0.55300
O155        O  0.42936182  0.09716220  0.32193339    -0.55200
O156        O  0.40394177  0.13301551  0.36431307    -0.54400
C157        C  0.44081051  0.21294941  0.31419234     0.14900
C158        C  0.41728551  0.20939871  0.30615020     0.01800
C159        C  0.39557765  0.18850429  0.31706322     0.16800
C160        C  0.39732371  0.17077069  0.33438366     0.26200
C161        C  0.42090997  0.17364785  0.34138952    -0.40100
C162        C  0.44264307  0.19537268  0.33165755     0.33300
C163        C  0.41540548  0.22744023  0.28635225     0.01900
F164        F  0.37257585  0.18474935  0.30999903    -0.12400
F165        F  0.46580110  0.19940567  0.33839984    -0.13000
C166        C  0.42462382  0.23098171  0.25784148     0.16800
C167        C  0.42309661  0.24827260  0.23936323     0.26200
C168        C  0.41224402  0.26237739  0.24904319    -0.40100
C169        C  0.40286342  0.25850850  0.27765405     0.33200
C170        C  0.40446033  0.24131717  0.29596739     0.14900
F171        F  0.43493397  0.21748290  0.24781879    -0.12400
F172        F  0.39269664  0.27189769  0.28845078    -0.12900
F173        F  0.43230504  0.25119947  0.21209492    -0.15200
F174        F  0.39593168  0.23876476  0.32354166    -0.13800
F175        F  0.46210924  0.23350378  0.30502377    -0.13800
F176        F  0.37582434  0.15027808  0.34323662    -0.15200
C177        C  0.54209005  0.13137037  0.39609225     0.14900
C178        C  0.54787614  0.11846053  0.37524198     0.01800
C179        C  0.52996594  0.10423261  0.35417939     0.16800
C180        C  0.50656065  0.10267077  0.35403639     0.26200
C181        C  0.50052330  0.11551246  0.37493810    -0.40100
C182        C  0.51868528  0.13002646  0.39589638     0.33300
C183        C  0.57181467  0.11825554  0.37628893     0.01900
F184        F  0.53487535  0.09111756  0.33419435    -0.12400
F185        F  0.51377707  0.14271307  0.41643077    -0.13000
C186        C  0.57682945  0.10698216  0.39965980     0.16800
C187        C  0.59747210  0.10336101  0.39896969     0.26200
C188        C  0.61357529  0.11090311  0.37473486    -0.40100
C189        C  0.60926768  0.12351449  0.35202979     0.33200
C190        C  0.58852677  0.12705801  0.35279428     0.14900
F191        F  0.56085187  0.09810916  0.42249245    -0.12400
F192        F  0.62461863  0.13175941  0.32862070    -0.12900
F193        F  0.60095045  0.09144192  0.42158919    -0.15200
F194        F  0.58436311  0.13854352  0.33022554    -0.13800
F195        F  0.55914987  0.14529731  0.41664874    -0.13800
F196        F  0.48975750  0.08827843  0.33347829    -0.15200
C197        C  0.76680830  0.16225901  0.44434369     0.14900
C198        C  0.77212721  0.18702550  0.44033435     0.01800
C199        C  0.75950182  0.19203308  0.41832891     0.16800
C200        C  0.74131598  0.17255888  0.40133143     0.26200
C201        C  0.73533328  0.14763069  0.40604638    -0.40100
C202        C  0.74863184  0.14278957  0.42742361     0.33300
C203        C  0.79041739  0.20746014  0.45949825     0.01900
F204        F  0.76464034  0.21582928  0.41343869    -0.12400
F205        F  0.74380109  0.11908472  0.43231756    -0.13000
C206        C  0.81522152  0.21242110  0.46179235     0.16800
C207        C  0.82625479  0.22008024  0.00262638     0.26200
C208        C  0.82541648  0.24680684  0.49546695    -0.40100
C209        C  0.80042997  0.24155027  0.49343668     0.33200
C210        C  0.78312712  0.22204060  0.47574539     0.14900
F211        F  0.81303518  0.18150146  0.97821643    -0.12400
F212        F  0.79270610  0.25538806  0.50842040    -0.12900
F213        F  0.84622956  0.21885006  0.01285245    -0.15200
F214        F  0.75913457  0.21730253  0.47456954    -0.13800
F215        F  0.77855227  0.15674493  0.46545203    -0.13800
F216        F  0.72874155  0.17799154  0.38121857    -0.15200
C217        C  0.52330581  0.42785405  0.22141672     0.14900
C218        C  0.54094228  0.42971101  0.20089360     0.01800
C219        C  0.53434135  0.40980588  0.18148512     0.16800
C220        C  0.51037664  0.38852897  0.18232909     0.26200
C221        C  0.49257505  0.38668892  0.20278581    -0.40100
C222        C  0.49948421  0.40656930  0.22251832     0.33300
C223        C  0.56583186  0.45283075  0.19916673     0.01900
F224        F  0.55115894  0.41098092  0.16166937    -0.12400
F225        F  0.48301268  0.40585594  0.24254186    -0.13000
C226        C  0.58161979  0.46164008  0.22347713     0.16800
C227        C  0.60448839  0.48421248  0.22224160     0.26200
C228        C  0.61196963  0.49847511  0.19663601    -0.40100
C229        C  0.59628918  0.48927151  0.17213899     0.33200
C230        C  0.57347030  0.46676491  0.17345769     0.14900
F231        F  0.57479371  0.44840585  0.24852774    -0.12400
F232        F  0.60284251  0.50213750  0.14682942    -0.12900
F233        F  0.61891337  0.49237442  0.24637566    -0.15200
F234        F  0.55838086  0.45902753  0.14982294    -0.13800
F235        F  0.52883650  0.44711378  0.23980746    -0.13800
F236        F  0.50460953  0.36989621  0.16292895    -0.15200
C237        C  0.86469559  0.45112988  0.03443488     0.14900
C238        C  0.88077630  0.44503730  0.04937565     0.01800
C239        C  0.90189996  0.46416374  0.06346062     0.16800
C240        C  0.90702044  0.48891293  0.06245510     0.26200
C241        C  0.89128032  0.49524952  0.04696061    -0.40100
C242        C  0.86991817  0.47598783  0.03313013     0.33300
C243        C  0.87661452  0.41915234  0.04884796     0.01900
F244        F  0.91822013  0.45904936  0.07732290    -0.12400
F245        F  0.86428021  0.49471310  0.48888288    -0.13000
C246        C  0.87567196  0.40761463  0.02231518     0.16800
C247        C  0.87466737  0.38449348  0.02157783     0.26200
C248        C  0.87486047  0.37248356  0.04738937    -0.40100
C249        C  0.87456175  0.38344916  0.07398805     0.33200
C250        C  0.87545679  0.40658975  0.07468672     0.14900
F251        F  0.87711855  0.41938127  0.99699873    -0.12400
F252        F  0.87475071  0.37248986  0.09933934    -0.12900
F253        F  0.87412088  0.37416114  0.99545863    -0.15200
F254        F  0.87583948  0.41706224  0.10065170    -0.13800
F255        F  0.85271608  0.44594805  0.48715998    -0.13800
F256        F  0.92786062  0.50673596  0.07613591    -0.15200
C257        C  0.78491504  0.59414547  0.13615864     0.14900
C258        C  0.78660740  0.57228374  0.13510237     0.01800
C259        C  0.76916753  0.55122019  0.15099563     0.16800
C260        C  0.75004515  0.55182037  0.16690627     0.26200
C261        C  0.74792039  0.57353361  0.16730850    -0.40100
C262        C  0.76586758  0.59479261  0.15201005     0.33300
C263        C  0.80688666  0.57179357  0.11790405     0.01900
F264        F  0.77016133  0.52974119  0.15041594    -0.12400
F265        F  0.76447918  0.61604984  0.15132299    -0.13000
C266        C  0.82378961  0.56605219  0.13135839     0.16800
C267        C  0.84366092  0.56685084  0.11579230     0.26200
C268        C  0.84722594  0.57341267  0.08622716    -0.40100
C269        C  0.82997018  0.57864397  0.07253904     0.33200
C270        C  0.81003928  0.57787045  0.08823200     0.14900
F271        F  0.82148128  0.56027312  0.15992402    -0.12400
F272        F  0.83265205  0.58504550  0.04415468    -0.12900
F273        F  0.85935654  0.56096957  0.12980935    -0.15200
F274        F  0.79369018  0.58293486  0.07437208    -0.13800
F275        F  0.80181662  0.61502894  0.12177952    -0.13800
F276        F  0.73339886  0.53098238  0.18155221    -0.15200
C277        C  0.04272792  0.66038980  0.40579801     0.14900
C278        C  0.01771105  0.65102989  0.39702147     0.01800
C279        C  0.01272769  0.65204233  0.36762856     0.16800
C280        C  0.03210019  0.66138811  0.34724333     0.26200
C281        C  0.05712765  0.66983864  0.35566102    -0.40100
C282        C  0.06225409  0.66969355  0.38534671     0.33300
C283        C  0.99665360  0.63960284  0.41820795     0.01900
F284        F  0.98891272  0.64383545  0.35856036    -0.12400
F285        F  0.08603387  0.67802846  0.39460678    -0.13000
C286        C  0.99563234  0.65357990  0.44162473     0.16800
C287        C  0.97604364  0.64262276  0.46182097     0.26200
C288        C  0.95708768  0.61728994  0.45920818    -0.40100
C289        C  0.95781851  0.60351429  0.43526174     0.33200
C290        C  0.97734314  0.61456821  0.41499618     0.14900
F291        F  0.01373194  0.67789742  0.44502920    -0.12400
F292        F  0.93984906  0.57916988  0.43163891    -0.12900
F293        F  0.97633632  0.65658648  0.48467301    -0.15200
F294        F  0.97784795  0.60050659  0.39268352    -0.13800
F295        F  0.04815445  0.65968144  0.43409580    -0.13800
F296        F  0.02607465  0.66162347  0.31906786    -0.15200
C297        C  0.00273246  0.61484419  0.13740050     0.14900
C298        C  0.01671146  0.64107046  0.13704452     0.01800
C299        C  0.01114821  0.65439888  0.11672005     0.16800
C300        C  0.99125264  0.64158240  0.09739351     0.26200
C301        C  0.97655942  0.61522813  0.09839858    -0.40100
C302        C  0.98288338  0.60200411  0.11825837     0.33300
C303        C  0.03614861  0.65410465  0.15913574     0.01900
F304        F  0.02496741  0.67977737  0.11566249    -0.12400
F305        F  0.96946433  0.57662537  0.11985685    -0.13000
C306        C  0.05693644  0.65067504  0.16004142     0.16800
C307        C  0.07284495  0.65878379  0.18392302     0.26200
C308        C  0.06820961  0.67053835  0.20732723    -0.40100
C309        C  0.04809218  0.67519421  0.20560101     0.33200
C310        C  0.03217092  0.66699701  0.18161942     0.14900
F311        F  0.06120890  0.63853523  0.13823426    -0.12400
F312        F  0.04287143  0.68628484  0.22778615    -0.12900
F313        F  0.09235014  0.65442987  0.18443369    -0.15200
F314        F  0.01190576  0.67015395  0.18120543    -0.13800
F315        F  0.00779037  0.60167984  0.15710253    -0.13800
F316        F  0.98642440  0.65496267  0.07778362    -0.15200
C317        C  0.21392884  0.77185752  0.22289062     0.14900
C318        C  0.21287177  0.79387454  0.21894499     0.01800
C319        C  0.19418278  0.79636241  0.23351467     0.16800
C320        C  0.17652468  0.77695700  0.25106616     0.26200
C321        C  0.17712663  0.75454936  0.25443701    -0.40100
C322        C  0.19633883  0.75245594  0.24039292     0.33300
C323        C  0.23174637  0.81443292  0.20032922     0.01900
F324        F  0.19255739  0.81734284  0.23006600    -0.12400
F325        F  0.19773188  0.73126763  0.24273926    -0.13000
C326        C  0.23506440  0.81011461  0.17115563     0.16800
C327        C  0.25402513  0.82915267  0.15431335     0.26200
C328        C  0.27018086  0.85286850  0.16639381    -0.40100
C329        C  0.26626149  0.85727121  0.19539800     0.33200
C330        C  0.24729569  0.83832768  0.21206621     0.14900
F331        F  0.21999401  0.78735618  0.15899495    -0.12400
F332        F  0.28101854  0.87992862  0.20796044    -0.12900
F333        F  0.25707716  0.82406511  0.12653964    -0.15200
F334        F  0.24475296  0.84310911  0.24014802    -0.13800
F335        F  0.23214401  0.76913792  0.20980078    -0.13800
F336        F  0.15854009  0.77998053  0.26426309    -0.15200
C337        C  0.40480176  0.05255230  0.24615875     0.14900
C338        C  0.38149785  0.03046003  0.24707222     0.01800
C339        C  0.36558846  0.02557096  0.27082190     0.16800
C340        C  0.37333536  0.04216696  0.29411942     0.26200
C341        C  0.39721841  0.06392378  0.29392179    -0.40100
C342        C  0.41260734  0.06926263  0.26932897     0.33300
C343        C  0.37463813  0.01150400  0.22438144     0.01900
F344        F  0.34306221  0.00407553  0.27203777    -0.12400
F345        F  0.43547787  0.09031662  0.26789570    -0.13000
C346        C  0.38699474  0.99770551  0.22292662     0.16800
C347        C  0.37998821  0.97889000  0.20229317     0.26200
C348        C  0.36043036  0.97360279  0.18271097    -0.40100
C349        C  0.34828369  0.98777007  0.18408849     0.33200
C350        C  0.35533041  0.00654992  0.20488443     0.14900
F351        F  0.40541326  0.00203140  0.24209895    -0.12400
F352        F  0.32964536  0.98354701  0.16533443    -0.12900
F353        F  0.39195415  0.96546693  0.20208605    -0.15200
F354        F  0.34337355  0.01995578  0.20602545    -0.13800
F355        F  0.42022094  0.05759772  0.22306066    -0.13800
F356        F  0.35786454  0.03630505  0.31730684    -0.15200
C357        C  0.35862192  0.01452384  0.45954148     0.14900
C358        C  0.37018861  0.01876211  0.48672046     0.01800
C359        C  0.39075411  0.04262622  0.49282217     0.16800
C360        C  0.40013251  0.06157486  0.47181714     0.26200
C361        C  0.38913782  0.05710134  0.44415831    -0.40100
C362        C  0.36791452  0.03341407  0.43853000     0.33300
C363        C  0.36691758  0.00050622  0.00652495     0.01900
F364        F  0.40200477  0.04751104  0.51912248    -0.12400
F365        F  0.35643802  0.02813964  0.41234871    -0.13000
C366        C  0.38510119  0.99782597  0.02174292     0.16800
C367        C  0.37807223  0.97819535  0.04140637     0.26200
C368        C  0.35253397  0.96077181  0.04670403    -0.40100
C369        C  0.33427933  0.96324853  0.03105627     0.33200
C370        C  0.34143450  0.98282063  0.01102538     0.14900
F371        F  0.40264264  0.00258537  0.50881269    -0.12400
F372        F  0.30951640  0.94681178  0.03512595    -0.12900
F373        F  0.39647853  0.97672088  0.05577119    -0.15200
F374        F  0.32344124  0.98477549  0.99634944    -0.13800
F375        F  0.33895423  0.99164571  0.45280470    -0.13800
F376        F  0.42053566  0.08400009  0.47832866    -0.15200
C377        C  0.63070343  0.01559909  0.25028109     0.14900
C378        C  0.64645148  0.00581134  0.24430188     0.01800
C379        C  0.66905731  0.01507251  0.25965118     0.16800
C380        C  0.67554808  0.03352315  0.28103208     0.26200
C381        C  0.65941928  0.04292489  0.28752714    -0.40100
C382        C  0.63709457  0.03394254  0.27148282     0.33300
C383        C  0.63882498  0.98599147  0.22193327     0.01900
F384        F  0.68482103  0.00623632  0.25394855    -0.12400
F385        F  0.62099069  0.04246762  0.27665386    -0.13000
C386        C  0.63405759  0.99066792  0.19366524     0.16800
C387        C  0.62318896  0.97132049  0.17341025     0.26200
C388        C  0.61682438  0.94664065  0.18088504    -0.40100
C389        C  0.62300981  0.94226227  0.20878358     0.33200
C390        C  0.63387514  0.96178551  0.22914297     0.14900
F391        F  0.63939164  0.01403568  0.18584644    -0.12400
F392        F  0.61781416  0.91898260  0.21673916    -0.12900
F393        F  0.61842010  0.97683705  0.14659130    -0.15200
F394        F  0.63840326  0.95676178  0.25631588    -0.13800
F395        F  0.60856657  0.00675465  0.23610765    -0.13800
F396        F  0.69721715  0.04155727  0.29592463    -0.15200
C397        C  0.63624681  0.95990153  0.00616375     0.14900
C398        C  0.61896159  0.96173297  0.98815546     0.01800
C399        C  0.62097487  0.94755005  0.49516991     0.16800
C400        C  0.58473904  0.92915419  0.01587332     0.26200
C401        C  0.60199654  0.92848292  0.03527506    -0.40100
C402        C  0.62786265  0.94332118  0.02949468     0.33300
C403        C  0.62484661  0.98403349  0.46703530     0.01900
F404        F  0.63294693  0.94262358  0.47373475    -0.12400
F405        F  0.64513300  0.94266448  0.04707891    -0.13000
C406        C  0.65049364  0.99858939  0.46074617     0.16800
C407        C  0.65877882  0.01694112  0.43928709     0.26200
C408        C  0.64148236  0.02115024  0.42397536    -0.40100
C409        C  0.61567511  0.00556436  0.42931326     0.33200
C410        C  0.60745996  0.98710476  0.45058648     0.14900
F411        F  0.66763154  0.99606473  0.47656226    -0.12400
F412        F  0.59834137  0.00846280  0.41440341    -0.12900
F413        F  0.68381074  0.03143944  0.43466920    -0.15200
F414        F  0.58249853  0.97263664  0.45575929    -0.13800
F415        F  0.66125719  0.97532194  0.00229280    -0.13800
F416        F  0.55963553  0.91471708  0.02009404    -0.15200
C417        C  0.40906124  0.86095074  0.10862762     0.14900
C418        C  0.42977113  0.87419249  0.12710584     0.01800
C419        C  0.43044244  0.89269996  0.14533711     0.16800
C420        C  0.41117609  0.89830887  0.14474651     0.26200
C421        C  0.39075625  0.88572147  0.12558924    -0.40100
C422        C  0.38978949  0.86674896  0.10772488     0.33300
C423        C  0.45196869  0.87084718  0.12536642     0.01900
F424        F  0.45051302  0.90641794  0.16271657    -0.12400
F425        F  0.37049231  0.85408586  0.08902499    -0.13000
C426        C  0.46457862  0.87475562  0.09893547     0.16800
C427        C  0.48737879  0.87515745  0.09755087     0.26200
C428        C  0.49841907  0.87200593  0.12273093    -0.40100
C429        C  0.48525180  0.86704702  0.14907790     0.33200
C430        C  0.46220945  0.86642561  0.15033770     0.14900
F431        F  0.45560902  0.87978855  0.07460252    -0.12400
F432        F  0.49498942  0.86365816  0.17382446    -0.12900
F433        F  0.49907942  0.87970814  0.07153044    -0.15200
F434        F  0.45018894  0.86215936  0.17612195    -0.13800
F435        F  0.40771407  0.84264852  0.09110847    -0.13800
F436        F  0.41317452  0.91686964  0.16231173    -0.15200
C437        C  0.60806187  0.63326400  0.32893895     0.14900
C438        C  0.63381074  0.64125054  0.32848332     0.01800
C439        C  0.64930626  0.65819320  0.34982084     0.16800
C440        C  0.63922357  0.66662202  0.37145073     0.26200
C441        C  0.61326241  0.65817137  0.37239975    -0.40100
C442        C  0.59790621  0.64155422  0.35056077     0.33300
C443        C  0.64426722  0.63167888  0.30583431     0.01900
F444        F  0.67430630  0.66660741  0.34973414    -0.12400
F445        F  0.57280105  0.63256775  0.35053375    -0.13000
C446        C  0.64204941  0.63581738  0.27639535     0.16800
C447        C  0.65046976  0.62568684  0.25492510     0.26200
C448        C  0.66141711  0.61107935  0.26229183    -0.40100
C449        C  0.66414404  0.60741867  0.29187371     0.33200
C450        C  0.65567327  0.61760839  0.31335987     0.14900
F451        F  0.63171726  0.64981466  0.26838085    -0.12400
F452        F  0.67419342  0.59322640  0.30009824    -0.12900
F453        F  0.64779161  0.63021300  0.22681946    -0.15200
F454        F  0.65777869  0.61292959  0.34157597    -0.13800
F455        F  0.59248564  0.61659783  0.30895925    -0.13800
F456        F  0.65489633  0.68260179  0.39186870    -0.15200
C457        C  0.61844141  0.61113235  0.04092638     0.14900
C458        C  0.64473619  0.62470426  0.03970357     0.01800
C459        C  0.65675449  0.64522255  0.02093023     0.16800
C460        C  0.64263113  0.65235928  0.00394800     0.26200
C461        C  0.61620629  0.63902249  0.00554696    -0.40100
C462        C  0.60430677  0.61815728  0.02404672     0.33300
C463        C  0.65908563  0.61857013  0.06032868     0.01900
F464        F  0.68215874  0.65848154  0.01929145    -0.12400
F465        F  0.57894834  0.60478304  0.02646544    -0.16600
C466        C  0.65517401  0.59415105  0.06148254     0.16800
C467        C  0.66274078  0.58618631  0.08570494     0.26200
C468        C  0.67428243  0.60258603  0.10918577    -0.40100
C469        C  0.68084549  0.62787132  0.10634371     0.33200
C470        C  0.67320254  0.63576503  0.08209338     0.14900
F471        F  0.64252243  0.57756243  0.03997353    -0.12400
F472        F  0.69290827  0.64455787  0.12793912    -0.12900
F473        F  0.65756264  0.56206683  0.08674295    -0.15200
F474        F  0.67758462  0.65961690  0.08117644    -0.13800
F475        F  0.60639503  0.59163846  0.05953676    -0.13800
F476        F  0.57886377  0.62537633  0.54352117    -0.15200
C477        C  0.56097867  0.78138353  0.06903173     0.14900
C478        C  0.58301604  0.78604260  0.05471237     0.01800
C479        C  0.60499814  0.80919213  0.05880907     0.16800
C480        C  0.60469697  0.82780743  0.07582490     0.26200
C481        C  0.58231682  0.82366147  0.08914464    -0.40100
C482        C  0.56059264  0.79995690  0.08607159     0.33300
C483        C  0.58293538  0.76694815  0.03508215     0.01900
F484        F  0.62655860  0.81422383  0.04521008    -0.12400
F485        F  0.53862897  0.79497956  0.09854700    -0.13000
C486        C  0.56678890  0.75815624  0.01105710     0.16800
C487        C  0.57317996  0.74692059  0.48896596     0.26200
C488        C  0.58155891  0.73106338  0.49986243    -0.40100
C489        C  0.59833857  0.73882193  0.02236953     0.33200
C490        C  0.59895198  0.75737848  0.04029239     0.14900
F491        F  0.56383208  0.77968908  0.49593695    -0.12400
F492        F  0.61414258  0.73008494  0.02829321    -0.12900
F493        F  0.56555009  0.74488788  0.46109092    -0.15200
F494        F  0.61467176  0.76543355  0.06336978    -0.13800
F495        F  0.53966832  0.75886567  0.06619655    -0.13800
F496        F  0.62615440  0.85025995  0.07816063    -0.15200
C497        C  0.34133367  0.35148742  0.03179692     0.14900
C498        C  0.34147827  0.35794431  0.06095017     0.01800
C499        C  0.33128082  0.37317277  0.06829646     0.16800
C500        C  0.32213187  0.38261693  0.04684013     0.26200
C501        C  0.32300473  0.37710279  0.01742847    -0.40100
C502        C  0.33231971  0.36098352  0.01029658     0.33300
C503        C  0.35444680  0.35094894  0.08321859     0.01900
F504        F  0.33072143  0.37940030  0.09633815    -0.12400
F505        F  0.33341810  0.35488070  0.98233714    -0.13000
C506        C  0.37497934  0.36988362  0.09827723     0.16800
C507        C  0.38758174  0.36398790  0.11917278     0.26200
C508        C  0.37999250  0.33881035  0.12580802    -0.40100
C509        C  0.35964697  0.31976062  0.11030250     0.33200
C510        C  0.34707605  0.32578254  0.08915467     0.14900
F511        F  0.38313157  0.39434677  0.09246217    -0.12400
F512        F  0.35156261  0.29529547  0.11592634    -0.12900
F513        F  0.40719382  0.38319779  0.13307534    -0.15200
F514        F  0.32731017  0.30700573  0.07497182    -0.13800
F515        F  0.35116983  0.33700191  0.02389803    -0.13800
F516        F  0.31350947  0.39810536  0.05484366    -0.15200
C517        C  0.32474420  0.34960939  0.35147017     0.14900
C518        C  0.33662711  0.36501034  0.32758307     0.01800
C519        C  0.33978504  0.38908549  0.32636650     0.16800
C520        C  0.33276101  0.39844601  0.34974490     0.26200
C521        C  0.32252930  0.38379308  0.37474149    -0.40100
C522        C  0.31760933  0.35889587  0.37495419     0.33300
C523        C  0.34923696  0.35768959  0.30608877     0.01900
F524        F  0.35092134  0.40397323  0.30308003    -0.12400
F525        F  0.30756498  0.34413711  0.39858995    -0.13000
C526        C  0.33576506  0.34075280  0.28396826     0.16800
C527        C  0.34837105  0.33465122  0.26327135     0.26200
C528        C  0.37464755  0.34537398  0.26466107    -0.40100
C529        C  0.38797496  0.36239064  0.28707231     0.33200
C530        C  0.37531296  0.36841287  0.30758620     0.14900
F531        F  0.31051217  0.33045456  0.28222117    -0.12400
F532        F  0.41326551  0.37322623  0.28933739    -0.12900
F533        F  0.33486299  0.31849350  0.24178007    -0.15200
F534        F  0.38849802  0.38471702  0.32913218    -0.13800
F535        F  0.32165728  0.32625193  0.35284946    -0.13800
F536        F  0.33681508  0.42216464  0.34828280    -0.15200
C537        C  0.47265557  0.56131333  0.46782095     0.14900
C538        C  0.45233072  0.56248522  0.45601239     0.01800
C539        C  0.45664523  0.58484135  0.44285979     0.16800
C540        C  0.48096389  0.60567360  0.44148243     0.26200
C541        C  0.50144954  0.60445369  0.45314942    -0.40100
C542        C  0.49688265  0.58195554  0.46641760     0.33300
C543        C  0.42703373  0.53977086  0.45615146     0.01900
F544        F  0.43726186  0.58651628  0.43145934    -0.12400
F545        F  0.51588063  0.57967196  0.47793876    -0.13000
C546        C  0.41546197  0.52807737  0.48232079     0.16800
C547        C  0.39298619  0.50502967  0.48228586     0.26200
C548        C  0.38172459  0.49315869  0.45600569    -0.40100
C549        C  0.39303208  0.50536374  0.42984905     0.33200
C550        C  0.41537108  0.52843369  0.42996436     0.14900
F551        F  0.42620566  0.53883055  0.50795241    -0.12400
F552        F  0.38265819  0.49486344  0.40399590    -0.12900
F553        F  0.35700175  0.50511987  0.99230334    -0.15200
F554        F  0.42622214  0.53919399  0.40437986    -0.13800
F555        F  0.46914437  0.53979048  0.48003571    -0.13800
F556        F  0.48439775  0.62690223  0.42855835    -0.15200
C557        C  0.98155661  0.32790969  0.12788268     0.14900
C558        C  0.97968089  0.33777730  0.15447760     0.01800
C559        C  0.95703343  0.33676791  0.16166374     0.16800
C560        C  0.93701758  0.32725476  0.14190940     0.26200
C561        C  0.93928275  0.31852232  0.11448736    -0.40100
C562        C  0.96160833  0.31830190  0.10814447     0.33300
C563        C  0.00186653  0.35056927  0.17385696     0.01900
F564        F  0.95466374  0.34592494  0.18743652    -0.12400
F565        F  0.96457451  0.30952017  0.08239135    -0.13000
C566        C  0.01992910  0.37579544  0.16918001     0.16800
C567        C  0.04023450  0.38850359  0.18821608     0.26200
C568        C  0.04297316  0.37617980  0.21245398    -0.40100
C569        C  0.02528240  0.35048213  0.21626341     0.33200
C570        C  0.00493435  0.33790599  0.19723928     0.14900
F571        F  0.01744448  0.38836573  0.14654367    -0.12400
F572        F  0.02711833  0.33758307  0.23896665    -0.12900
F573        F  0.05666424  0.41312814  0.18339428    -0.15200
F574        F  0.98790867  0.31342198  0.20196811    -0.13800
F575        F  0.00306049  0.32822253  0.12068716    -0.13800
F576        F  0.91591938  0.32771691  0.14917146    -0.15200
C577        C  0.00006691  0.39483873  0.37756229     0.14900
C578        C  0.99134179  0.37130064  0.39014373     0.01800
C579        C  0.00110105  0.35618003  0.38127470     0.16800
C580        C  0.01991394  0.36475282  0.36032271     0.26200
C581        C  0.02911458  0.38861357  0.34789095    -0.40100
C582        C  0.01873095  0.40343966  0.35650995     0.33300
C583        C  0.97285537  0.36290309  0.41355285     0.01900
F584        F  0.99285162  0.33339281  0.39357148    -0.12400
F585        F  0.02692610  0.42652146  0.34507865    -0.13000
C586        C  0.94856098  0.34279481  0.40915475     0.16800
C587        C  0.93149038  0.33381739  0.43198788     0.26200
C588        C  0.93859732  0.34491587  0.45953890    -0.40100
C589        C  0.96289653  0.36547234  0.46363226     0.33200
C590        C  0.97986278  0.37441674  0.44072716     0.14900
F591        F  0.94139813  0.33199520  0.38267554    -0.12400
F592        F  0.97052174  0.37652239  0.48993777    -0.12900
F593        F  0.90797913  0.31448237  0.42701058    -0.15200
F594        F  0.00338433  0.39392046  0.44521223    -0.13800
F595        F  0.99058379  0.40954826  0.38585009    -0.13800
F596        F  0.02918441  0.34977000  0.35247522    -0.15200
C597        C  0.09645887  0.52848038  0.30073258     0.14900
C598        C  0.11717237  0.54771365  0.28630921     0.01800
C599        C  0.13328605  0.54194400  0.27084995     0.16800
C600        C  0.12869870  0.51724152  0.26985289     0.26200
C601        C  0.10776182  0.49782699  0.28416153    -0.40100
C602        C  0.09178342  0.50388589  0.29975234     0.33300
C603        C  0.12083563  0.57338762  0.28635269     0.01900
F604        F  0.15354218  0.56028254  0.25684978    -0.12400
F605        F  0.07140111  0.48602417  0.31407861    -0.13000
C606        C  0.12476862  0.58663490  0.31240753     0.16800
C607        C  0.12486605  0.60941389  0.31292338     0.26200
C608        C  0.12081255  0.61924658  0.28735714    -0.40100
C609        C  0.11786785  0.60633375  0.26111575     0.33200
C610        C  0.11790567  0.58369097  0.26066601     0.14900
F611        F  0.12793648  0.57715789  0.33748705    -0.12400
F612        F  0.11449757  0.61536136  0.23579506    -0.12900
F613        F  0.12782695  0.62121434  0.33862839    -0.15200
F614        F  0.11382404  0.57117265  0.23526625    -0.13800
F615        F  0.08025209  0.53343373  0.31520699    -0.13800
F616        F  0.14471211  0.51239043  0.25482850    -0.15200
C617        C  0.23225153  0.44364014  0.39706491     0.14900
C618        C  0.21147810  0.42140482  0.38703722     0.01800
C619        C  0.20882916  0.39838023  0.39568487     0.16800
C620        C  0.22685842  0.39755373  0.41346968     0.26200
C621        C  0.24821412  0.41982204  0.42281981    -0.40100
C622        C  0.25044568  0.44290940  0.41462384     0.33300
C623        C  0.19222109  0.42217138  0.36820749     0.01900
F624        F  0.18866517  0.37659658  0.38687903    -0.12400
F625        F  0.27064691  0.46491945  0.42281162    -0.13000
C626        C  0.18835131  0.41324490  0.33955722     0.16800
C627        C  0.16954754  0.41325909  0.32230634     0.26200
C628        C  0.15399565  0.42195825  0.33349236    -0.40100
C629        C  0.15835033  0.43129851  0.36212356     0.33200
C630        C  0.17724910  0.43148106  0.37911205     0.14900
F631        F  0.20293557  0.40464459  0.32822034    -0.12400
F632        F  0.14425862  0.44028064  0.37395292    -0.12900
F633        F  0.16634922  0.40437169  0.29485940    -0.15200
F634        F  0.18054455  0.44025431  0.40663582    -0.13800
F635        F  0.23534921  0.46618055  0.38907293    -0.13800
F636        F  0.22364046  0.37484807  0.42085375    -0.15200
O637        O  0.07278785  0.44929779  0.80027367    -0.55600
C638        C  0.04122745  0.38901035  0.82882913     0.77000
O639        O  0.06733507  0.41210009  0.73468570    -0.56800
C640        C  0.09194406  0.46653285  0.78782276     0.77000
C641        C  0.12214277  0.41581730  0.81548810     0.79400
Cd642      Cd  0.07931606  0.41479112  0.78708565     1.37500
O643        O  0.04353989  0.40812963  0.81590430    -0.55600
O644        O  0.10648883  0.42023282  0.82770026    -0.54400
C645        C  0.05135418  0.38892776  0.73493458     0.79300
O646        O  0.11852576  0.41082301  0.78863132    -0.56800
O647        O  0.05614537  0.38147977  0.82161304    -0.55300
O648        O  0.10530757  0.45972651  0.77399103    -0.55200
O649        O  0.05093761  0.37743665  0.75769714    -0.54400
O650        O  0.35082234  0.45011699  0.93589704    -0.55600
C651        C  0.31282901  0.39600198  0.89340557     0.77000
O652        O  0.32252403  0.38928828  0.96816940    -0.56800
C653        C  0.35275123  0.46548698  0.95522953     0.77000
C654        C  0.26280464  0.41731314  0.93146817     0.79400
Cd655      Cd  0.30848035  0.41681435  0.94714563     1.37500
O656        O  0.32294587  0.41937252  0.89741724    -0.55600
O657        O  0.28387982  0.43714789  0.93300558    -0.54400
C658        C  0.31627821  0.38951100  0.99411313     0.79300
O659        O  0.26214739  0.39771153  0.94079867    -0.56800
O660        O  0.30018336  0.38212147  0.91424765    -0.55300
O661        O  0.33365969  0.45856242  0.97122305    -0.55200
O662        O  0.30487214  0.40153570  0.99877808    -0.54400
O663        O  0.53465820  0.62747009  0.97902808    -0.55600
C664        C  0.60353446  0.65203653  0.49223922     0.77000
O665        O  0.59728539  0.67835485  0.91043211    -0.56800
C666        C  0.51869590  0.62545647  0.96048854     0.77000
C667        C  0.57869165  0.70722942  0.98247752     0.79400
Cd668      Cd  0.57145481  0.66161891  0.95535960     1.37500
O669        O  0.61577737  0.66917220  0.47394341    -0.55600
O670        O  0.58745520  0.69413848  0.99225554    -0.54400
C671        C  0.59030204  0.65696917  0.89962038     0.79300
O672        O  0.56693123  0.69988036  0.95873018    -0.56800
O673        O  0.61107286  0.66567304  0.97180511    -0.55300
O674        O  0.52697937  0.64111243  0.93988802    -0.55200
O675        O  0.57312238  0.63859748  0.91312915    -0.54400
O676        O  0.53446109  0.89038049  0.59940793    -0.55600
C677        C  0.59028390  0.92017267  0.56736827     0.77000
O678        O  0.58056246  0.90035333  0.67018243    -0.56800
C679        C  0.52032252  0.88070372  0.62104435     0.77000
C680        C  0.57232779  0.84385587  0.60140235     0.79400
Cd681      Cd  0.57075977  0.88898733  0.61747968     1.37500
O682        O  0.59841051  0.90578835  0.57472431    -0.55600
O683        O  0.55261622  0.84526178  0.59956634    -0.54400
C684        C  0.59851139  0.92232553  0.66539143     0.79300
O685        O  0.59080414  0.86239186  0.61330939    -0.56800
O686        O  0.57333890  0.91975667  0.58312300    -0.55300
O687        O  0.52899870  0.87328403  0.64118710    -0.55200
O688        O  0.60442347  0.92760209  0.63917228    -0.54400
O689        O  0.36391679  0.90853564  0.64973037    -0.55600
C690        C  0.34808952  0.95555928  0.66603172     0.77000
O691        O  0.35601604  0.93871215  0.58736984    -0.56800
C692        C  0.36501144  0.89465825  0.63034117     0.77000
C693        C  0.28428591  0.87399047  0.65357019     0.79400
Cd694      Cd  0.33081167  0.91351884  0.62813760     1.37500
O695        O  0.35852947  0.94240265  0.66487514    -0.55600
O696        O  0.29740491  0.89545856  0.66451939    -0.54400
C697        C  0.33952777  0.94147044  0.57454988     0.79300
O698        O  0.29166445  0.87076862  0.62916051    -0.56800
O699        O  0.32943812  0.94905354  0.64955862    -0.55300
O700        O  0.34911770  0.88826674  0.61005518    -0.55200
O701        O  0.31757234  0.92914121  0.58497511    -0.54400
O702        O  0.10429258  0.64388891  0.76801855    -0.55600
C703        C  0.08006204  0.67320292  0.73328372     0.77000
O704        O  0.09403968  0.68127349  0.83825628    -0.56800
C705        C  0.11462924  0.63952240  0.78897594     0.77000
C706        C  0.15029673  0.73109368  0.77179501     0.79400
Cd707      Cd  0.10714438  0.68203420  0.78604758     1.37500
O708        O  0.09591528  0.66615978  0.73688014    -0.55600
O709        O  0.15246636  0.71208093  0.77639520    -0.54400
C710        C  0.07068759  0.66985194  0.83285514     0.79300
O711        O  0.12898264  0.72830383  0.77751456    -0.56800
O712        O  0.07759526  0.68530898  0.75391523    -0.55300
O713        O  0.12275072  0.65567213  0.80913942    -0.55200
O714        O  0.06497780  0.66554934  0.80647641    -0.54400
O715        O  0.91333757  0.54365949  0.54822845    -0.55600
C716        C  0.95267035  0.60432857  0.57500269     0.77000
O717        O  0.93179158  0.60824053  0.00660006    -0.56800
C718        C  0.89431746  0.52821016  0.53394901     0.77000
C719        C  0.87224611  0.58488062  0.56711774     0.79400
Cd720      Cd  0.91145389  0.58101289  0.53614093     1.37500
O721        O  0.94004594  0.58083519  0.57175011    -0.55600
O722        O  0.88996164  0.58358482  0.57887139    -0.54400
C723        C  0.93741581  0.59611643  0.98899369     0.79300
O724        O  0.87237229  0.58502855  0.53964613    -0.56800
O725        O  0.94671745  0.61727249  0.55924287    -0.55300
O726        O  0.88302494  0.53724314  0.51984011    -0.55200
O727        O  0.92763308  0.58122450  0.48671593    -0.54400
O728        O  0.64797461  0.55335247  0.69180289    -0.55600
C729        C  0.67941552  0.60242470  0.65153130     0.77000
O730        O  0.68623905  0.59440815  0.75702574    -0.56800
C731        C  0.64572169  0.53729111  0.71028706     0.77000
C732        C  0.73650863  0.58765727  0.68831362     0.79400
Cd733      Cd  0.68989590  0.58583773  0.70454832     1.37500
O734        O  0.69390278  0.61791010  0.67023643    -0.55600
O735        O  0.71648752  0.56725238  0.69287992    -0.54400
C736        C  0.68100751  0.61145351  0.75193976     0.79300
O737        O  0.73589586  0.60723288  0.69489309    -0.56800
O738        O  0.67076417  0.57950430  0.65721406    -0.55300
O739        O  0.66448380  0.54354174  0.72662264    -0.55200
O740        O  0.68269952  0.61802108  0.72584364    -0.54400
O741        O  0.64396801  0.05888900  0.90985073    -0.55600
C742        C  0.63461463  0.10576787  0.87446598     0.77000
O743        O  0.70863112  0.12778460  0.87328427    -0.56800
C744        C  0.65232920  0.04394314  0.90811366     0.77000
C745        C  0.66057486  0.05918697  0.81610123     0.79400
Cd746      Cd  0.66843231  0.08600875  0.87054934     1.37500
O747        O  0.63316020  0.08861127  0.89065890    -0.55600
O748        O  0.68242696  0.07190288  0.82666261    -0.54400
C749        C  0.71445461  0.12382914  0.89824878     0.79300
O750        O  0.64364057  0.06119444  0.82908309    -0.56800
O751        O  0.65219810  0.11432946  0.85597194    -0.55300
O752        O  0.66823762  0.04833930  0.88834848    -0.55200
O753        O  0.70028841  0.10228052  0.90840856    -0.54400
O754        O  0.88441109  0.35211672  0.50848473    -0.55600
C755        C  0.92172998  0.32352444  0.99495635     0.77000
O756        O  0.89662922  0.32068342  0.58369283    -0.56800
C757        C  0.87459922  0.35733857  0.52933206     0.77000
C758        C  0.84469989  0.26939343  0.51119812     0.79400
Cd759      Cd  0.88607767  0.31732072  0.53059817     1.37500
O760        O  0.92356985  0.33897845  0.01410961    -0.55600
O761        O  0.84477734  0.28422887  0.02370877    -0.54400
C762        C  0.91705585  0.32074766  0.58010279     0.79300
O763        O  0.86598992  0.27236899  0.51739306    -0.56800
O764        O  0.90139767  0.31374292  0.48316053    -0.55300
O765        O  0.86843759  0.34288141  0.55106671    -0.55200
O766        O  0.92134444  0.31667438  0.55457840    -0.54400
O767        O  0.38740815  0.32980085  0.72841242    -0.55600
C768        C  0.48022017  0.37650437  0.71225401     0.77000
O769        O  0.41531398  0.30708804  0.74697168    -0.56800
C770        C  0.39631741  0.34956418  0.74349636     0.77000
C771        C  0.40712722  0.34258996  0.65386863     0.79400
Cd772      Cd  0.42783251  0.33835163  0.70874595     1.37500
O773        O  0.46434670  0.37362232  0.73140833    -0.55600
O774        O  0.40304720  0.32127797  0.66221959    -0.54400
C775        C  0.42469330  0.29462760  0.73684410     0.79300
O776        O  0.42172666  0.36084038  0.66959618    -0.56800
O777        O  0.47205520  0.36097211  0.69151223    -0.55300
O778        O  0.41985766  0.36391884  0.74242136    -0.55200
O779        O  0.43510187  0.30158341  0.71226817    -0.54400
O780        O  0.39584817  0.08407446  0.84287176    -0.55600
C781        C  0.48108455  0.12199009  0.87517842     0.77000
O782        O  0.44825151  0.15974243  0.86079995    -0.56800
C783        C  0.40915307  0.08576081  0.82120055     0.77000
C784        C  0.40590407  0.07957135  0.92018929     0.79400
Cd785      Cd  0.43085627  0.11457054  0.87252127     1.37500
O786        O  0.46535256  0.10939103  0.85576340    -0.55600
O787        O  0.41750003  0.10298628  0.92514060    -0.54400
C788        C  0.42749931  0.15872524  0.85678917     0.79300
O789        O  0.40560436  0.07343246  0.89414011    -0.56800
O790        O  0.47368835  0.13171496  0.89415077    -0.55300
O791        O  0.43233276  0.10150013  0.82307571    -0.55200
O792        O  0.40830268  0.13819024  0.86353762    -0.54400
C793        C  0.44651870  0.22243402  0.82399946     0.14900
C794        C  0.42471484  0.21736950  0.80879446     0.01800
C795        C  0.40320152  0.19358910  0.81172128     0.16800
C796        C  0.40369525  0.17501669  0.82866848     0.26200
C797        C  0.42583808  0.17967475  0.84292776    -0.40100
C798        C  0.44713010  0.20379583  0.84075354     0.33300
C799        C  0.42441255  0.23670319  0.78969126     0.01900
F800        F  0.38192359  0.18793247  0.79708590    -0.12400
F801        F  0.46871425  0.20932913  0.85458190    -0.13000
C802        C  0.44182929  0.24767994  0.76696229     0.16800
C803        C  0.44151020  0.26590867  0.74908717     0.26200
C804        C  0.42383269  0.27365019  0.75367292    -0.40100
C805        C  0.40620402  0.26234284  0.77617616     0.33200
C806        C  0.40650561  0.24413679  0.79391642     0.14900
F807        F  0.45911452  0.24063692  0.76194676    -0.12400
F808        F  0.38856951  0.26893479  0.78115808    -0.12900
F809        F  0.45901811  0.27652423  0.72792100    -0.15200
F810        F  0.38960721  0.23420584  0.81578781    -0.13800
F811        F  0.46730249  0.24550280  0.82261591    -0.13800
F812        F  0.38279679  0.15202369  0.82975926    -0.15200
C813        C  0.54713056  0.13879299  0.89824144     0.14900
C814        C  0.55363895  0.12721154  0.87639917     0.01800
C815        C  0.53671617  0.11492363  0.85376202     0.16800
C816        C  0.51345930  0.11363691  0.85321853     0.26200
C817        C  0.50648743  0.12470000  0.87537941    -0.40100
C818        C  0.52379712  0.13763011  0.89772742     0.33300
C819        C  0.57684972  0.12565221  0.87822182     0.01900
F820        F  0.54226846  0.10310372  0.83272402    -0.12400
F821        F  0.51802935  0.14872628  0.91940241    -0.13000
C822        C  0.57975775  0.11222138  0.90086013     0.16800
C823        C  0.59915479  0.10670572  0.90021116     0.26200
C824        C  0.61615642  0.11453796  0.87681869    -0.40100
C825        C  0.61414980  0.12941447  0.85506605     0.33200
C826        C  0.59459037  0.13479752  0.85572116     0.14900
F827        F  0.56285320  0.10308656  0.92280384    -0.12400
F828        F  0.63039131  0.13785189  0.83246804    -0.12900
F829        F  0.60073661  0.09299123  0.92217205    -0.15200
F830        F  0.59247151  0.14829570  0.83388265    -0.13800
F831        F  0.56329893  0.15101682  0.92022392    -0.13800
F832        F  0.49756956  0.10094969  0.83117270    -0.15200
C833        C  0.75765919  0.15650102  0.96203631     0.14900
C834        C  0.77098725  0.18148597  0.95267939     0.01800
C835        C  0.76716078  0.18713508  0.92432420     0.16800
C836        C  0.74969670  0.16829524  0.90601676     0.26200
C837        C  0.73557540  0.14336055  0.91574603    -0.40100
C838        C  0.74026124  0.13766072  0.94383498     0.33300
C839        C  0.78867288  0.20161838  0.97259032     0.01900
F840        F  0.78034643  0.21099569  0.91435131    -0.12400
F841        F  0.72751629  0.11389581  0.95420992    -0.13000
C842        C  0.80910196  0.20071818  0.98469694     0.16800
C843        C  0.83249150  0.23176548  0.47962605     0.26200
C844        C  0.82346751  0.24095013  0.00877471    -0.40100
C845        C  0.80244047  0.24135182  0.99737651     0.33200
C846        C  0.78523496  0.22187135  0.97958050     0.14900
F847        F  0.82302746  0.19911312  0.44585502    -0.12400
F848        F  0.79865490  0.26079948  0.00300666    -0.12900
F849        F  0.85649164  0.23648832  0.48021292    -0.15200
F850        F  0.76513526  0.22277955  0.96913232    -0.13800
F851        F  0.76078410  0.15043292  0.98931715    -0.13800
F852        F  0.74624910  0.17463716  0.87903125    -0.15200
C853        C  0.53918327  0.43394269  0.73929420     0.14900
C854        C  0.55439252  0.44109909  0.71459641     0.01800
C855        C  0.54610796  0.42587269  0.68986420     0.16800
C856        C  0.52247293  0.40416250  0.68945546     0.26200
C857        C  0.50654462  0.39752564  0.71373869    -0.40100
C858        C  0.51546962  0.41240316  0.73891425     0.33300
C859        C  0.57788641  0.46552688  0.71381330     0.01900
F860        F  0.56073004  0.43242761  0.66584338    -0.12400
F861        F  0.50104733  0.40653046  0.76304157    -0.13000
C862        C  0.59880641  0.46978206  0.73020867     0.16800
C863        C  0.62090204  0.49313579  0.72936076     0.26200
C864        C  0.62229646  0.51265024  0.71218171    -0.40100
C865        C  0.60096091  0.50831519  0.69627211     0.33200
C866        C  0.57907963  0.48497553  0.69702115     0.14900
F867        F  0.59790884  0.45118309  0.74671364    -0.12400
F868        F  0.60103612  0.52672297  0.68014022    -0.12900
F869        F  0.64094139  0.49648268  0.74505112    -0.15200
F870        F  0.55879487  0.48144334  0.68166909    -0.13800
F871        F  0.54684455  0.44850868  0.76336608    -0.13800
F872        F  0.51486348  0.39028734  0.66486939    -0.15200
C873        C  0.86584115  0.46042996  0.50998443     0.14900
C874        C  0.87395132  0.45051896  0.53204023     0.01800
C875        C  0.88744071  0.46580058  0.55546390     0.16800
C876        C  0.89359102  0.49088120  0.55634110     0.26200
C877        C  0.88613559  0.50114723  0.53386291    -0.40100
C878        C  0.87171576  0.48549719  0.51097387     0.33300
C879        C  0.87099837  0.42527764  0.52929520     0.01900
F880        F  0.89571213  0.45671061  0.57686310    -0.12400
F881        F  0.85403591  0.48111767  0.01831482    -0.13000
C882        C  0.88437152  0.42089661  0.50777950     0.16800
C883        C  0.88479424  0.39849225  0.50728024     0.26200
C884        C  0.87174077  0.37985053  0.52836386    -0.40100
C885        C  0.85745499  0.38387974  0.54922265     0.33200
C886        C  0.85715151  0.40645401  0.54969226     0.14900
F887        F  0.89826621  0.43898934  0.48817050    -0.12400
F888        F  0.84413951  0.36621346  0.56945747    -0.12900
F889        F  0.89914466  0.39573578  0.48695433    -0.15200
F890        F  0.84372984  0.41017608  0.57039094    -0.13800
F891        F  0.84388442  0.43295396  0.02107487    -0.13800
F892        F  0.90713120  0.50516942  0.57910330    -0.15200
C893        C  0.79566163  0.61043279  0.64317694     0.14900
C894        C  0.79679321  0.58838300  0.63970172     0.01800
C895        C  0.77906941  0.56657592  0.65421973     0.16800
C896        C  0.76027287  0.56663981  0.67124201     0.26200
C897        C  0.75862505  0.58851247  0.67405474    -0.40100
C898        C  0.77678199  0.61050342  0.66006099     0.33300
C899        C  0.81630717  0.58798990  0.62093821     0.01900
F900        F  0.77937495  0.54485657  0.65106952    -0.12400
F901        F  0.77566931  0.63189080  0.66156743    -0.13000
C902        C  0.83222920  0.57994819  0.63218802     0.16800
C903        C  0.85012020  0.57883472  0.61461553     0.26200
C904        C  0.85272491  0.58588103  0.58520633    -0.40100
C905        C  0.83685275  0.59405532  0.57393060     0.33200
C906        C  0.81886746  0.59514202  0.59163459     0.14900
F907        F  0.83068598  0.57341314  0.66045915    -0.12400
F908        F  0.83890685  0.60129787  0.54589602    -0.12900
F909        F  0.86468891  0.57045837  0.62650098    -0.15200
F910        F  0.80361981  0.60276847  0.57997678    -0.13800
F911        F  0.81281815  0.63196517  0.63007400    -0.13800
F912        F  0.74335723  0.54506344  0.68447118    -0.15200
C913        C  0.03785509  0.65382121  0.90645917     0.14900
C914        C  0.01244255  0.64219534  0.89842587     0.01800
C915        C  0.00640223  0.64052984  0.86896408     0.16800
C916        C  0.02527125  0.64991641  0.84786302     0.26200
C917        C  0.05085251  0.66130445  0.85570900    -0.40100
C918        C  0.05684927  0.66319132  0.88535839     0.33300
C919        C  0.99218675  0.63074831  0.92060002     0.01900
F920        F  0.98206391  0.62970885  0.86056238    -0.12400
F921        F  0.08105417  0.67342078  0.89402271    -0.13000
C922        C  0.98968283  0.64550489  0.94204394     0.16800
C923        C  0.97112381  0.63444253  0.96347567     0.26200
C924        C  0.95475490  0.60826084  0.96406631    -0.40100
C925        C  0.95705430  0.59362871  0.94216434     0.33200
C926        C  0.97543640  0.60476451  0.92063063     0.14900
F927        F  0.00535145  0.67068841  0.94233025    -0.12400
F928        F  0.94180282  0.56838050  0.94181440    -0.12900
F929        F  0.96995357  0.64930286  0.98435185    -0.15200
F930        F  0.97745870  0.58999538  0.90029562    -0.13800
F931        F  0.04423818  0.65528899  0.93476240    -0.13800
F932        F  0.01831422  0.64748102  0.81967498    -0.15200
C933        C  0.99221111  0.61215833  0.64060911     0.14900
C934        C  0.01049370  0.63755934  0.63880048     0.01800
C935        C  0.00984738  0.65218277  0.61603640     0.16800
C936        C  0.99114110  0.64141917  0.59501116     0.26200
C937        C  0.97285259  0.61583969  0.59660724    -0.40100
C938        C  0.97353077  0.60134251  0.61968950     0.33300
C939        C  0.02999155  0.64873861  0.66107748     0.01900
F940        F  0.02748894  0.67680965  0.61410244    -0.12400
F941        F  0.95569060  0.57685580  0.62257050    -0.13000
C942        C  0.04776709  0.64106709  0.66372350     0.16800
C943        C  0.06497283  0.64999367  0.68640770     0.26200
C944        C  0.06439149  0.66655980  0.70702806    -0.40100
C945        C  0.04713404  0.67499039  0.70347468     0.33200
C946        C  0.03002054  0.66605309  0.68069739     0.14900
F947        F  0.04804292  0.62446447  0.64463706    -0.12400
F948        F  0.04623785  0.69130187  0.72248044    -0.12900
F949        F  0.08153469  0.64167450  0.68864803    -0.15200
F950        F  0.01268210  0.67338540  0.67854723    -0.13800
F951        F  0.99213172  0.59798377  0.66308585    -0.13800
F952        F  0.99112321  0.65594863  0.57301072    -0.15200
C953        C  0.21174873  0.77647561  0.73444960     0.14900
C954        C  0.20678978  0.79498316  0.72410573     0.01800
C955        C  0.18418100  0.79372601  0.73224757     0.16800
C956        C  0.16648409  0.77382778  0.74925254     0.26200
C957        C  0.17082850  0.75449186  0.75833549    -0.40100
C958        C  0.19401255  0.75645537  0.75120783     0.33300
C959        C  0.22511073  0.81530229  0.70464139     0.01900
F960        F  0.17867926  0.81120008  0.72267331    -0.12400
F961        F  0.19938125  0.73863891  0.75975787    -0.13000
C962        C  0.23356727  0.80944551  0.67907571     0.16800
C963        C  0.25199169  0.82844176  0.66172769     0.26200
C964        C  0.26238213  0.85381382  0.66949990    -0.40100
C965        C  0.25307058  0.85964445  0.69444165     0.33200
C966        C  0.23475148  0.84065309  0.71178459     0.14900
F967        F  0.22406271  0.78520485  0.67094670    -0.12400
F968        F  0.26204560  0.88382287  0.70252625    -0.12900
F969        F  0.26026599  0.82187329  0.63791798    -0.15200
F970        F  0.22718867  0.84710870  0.73627031    -0.13800
F971        F  0.23385388  0.77770169  0.72816695    -0.13800
F972        F  0.14463684  0.77305845  0.75577151    -0.15200
C973        C  0.40361410  0.05832679  0.74658216     0.14900
C974        C  0.38074597  0.03577302  0.74878410     0.01800
C975        C  0.36620593  0.03070037  0.77391485     0.16800
C976        C  0.37490462  0.04749973  0.79706276     0.26200
C977        C  0.39846250  0.06957283  0.79551023    -0.40100
C978        C  0.41248631  0.07504925  0.76977587     0.33300
C979        C  0.37307057  0.01656891  0.72601052     0.01900
F980        F  0.34421122  0.00879090  0.77666659    -0.12400
F981        F  0.43504355  0.09634977  0.76718332    -0.13000
C982        C  0.38835292  0.00634724  0.71956736     0.16800
C983        C  0.38044801  0.98681016  0.69970305     0.26200
C984        C  0.35705809  0.97715030  0.68585823    -0.40100
C985        C  0.34209419  0.98794576  0.69177074     0.33200
C986        C  0.35001951  0.00742544  0.71179409     0.14900
F987        F  0.41061192  0.01472996  0.73331353    -0.12400
F988        F  0.31947610  0.97925872  0.67881105    -0.12900
F989        F  0.39568228  0.97728829  0.69425411    -0.15200
F990        F  0.33510381  0.01726287  0.71748951    -0.13800
F991        F  0.41760902  0.06387705  0.72212515    -0.13800
F992        F  0.36084147  0.04141763  0.82151007    -0.15200
C993        C  0.36943559  0.01544712  0.95565156     0.14900
C994        C  0.37482349  0.02111715  0.98505235     0.01800
C995        C  0.38911449  0.04642210  0.99345090     0.16800
C996        C  0.39844325  0.06565580  0.97267563     0.26200
C997        C  0.39383333  0.05991190  0.94301059    -0.40100
C998        C  0.37873690  0.03451324  0.93491548     0.33300
C999        C  0.36167726  0.99799587  0.50810824     0.01900
F1000       F  0.39431274  0.05247476  0.02181512    -0.12400
F1001       F  0.37330945  0.02787963  0.90671329    -0.13000
C1002       C  0.37864410  0.99099578  0.51861564     0.16800
C1003       C  0.37113631  0.97198008  0.53922148     0.26200
C1004       C  0.34631930  0.95931687  0.54989772    -0.40100
C1005       C  0.32908174  0.96577034  0.53859771     0.33200
C1006       C  0.33670750  0.98493169  0.51796715     0.14900
F1007       F  0.40985119  0.01413891  0.01727913    -0.12400
F1008       F  0.30501932  0.95414384  0.54813532    -0.12900
F1009       F  0.38846368  0.96633373  0.54902312    -0.15200
F1010       F  0.31987057  0.99131011  0.50834954    -0.13800
F1011       F  0.35605691  0.99123752  0.94680644    -0.13800
F1012       F  0.41264263  0.08975899  0.98157865    -0.15200
C1013       C  0.62263800  0.00959566  0.75972508     0.14900
C1014       C  0.63961028  0.00213360  0.75050911     0.01800
C1015       C  0.66440649  0.01526312  0.76081469     0.16800
C1016       C  0.67175522  0.03476809  0.78099929     0.26200
C1017       C  0.65440112  0.04153683  0.79127655    -0.40100
C1018       C  0.62989781  0.02904584  0.77974883     0.33300
C1019       C  0.63118048  0.98076260  0.73000095     0.01900
F1020       F  0.68126960  0.00855719  0.75216827    -0.12400
F1021       F  0.61262639  0.03525942  0.78822394    -0.13000
C1022       C  0.64188321  0.98449002  0.70236207     0.16800
C1023       C  0.63202646  0.96514017  0.68187419     0.26200
C1024       C  0.61118493  0.94148165  0.68857457    -0.40100
C1025       C  0.60129739  0.93744310  0.71682507     0.33200
C1026       C  0.61118446  0.95689374  0.73726087     0.14900
F1027       F  0.66112679  0.00731694  0.69466641    -0.12400
F1028       F  0.58136786  0.91502475  0.72441660    -0.12900
F1029       F  0.64246616  0.96995982  0.65510313    -0.15200
F1030       F  0.60087293  0.95257038  0.76408454    -0.13800
F1031       F  0.59884476  0.99792334  0.74930896    -0.13800
F1032       F  0.69557918  0.04630326  0.79126724    -0.15200
C1033       C  0.60386642  0.97226998  0.51490617     0.14900
C1034       C  0.61634726  0.96753736  0.49257357     0.01800
C1035       C  0.59319950  0.94563329  0.99251475     0.16800
C1036       C  0.61281850  0.93221352  0.51967969     0.26200
C1037       C  0.59983824  0.93666126  0.54183920    -0.40100
C1038       C  0.59561656  0.95697593  0.53924834     0.33300
C1039       C  0.62755101  0.98237932  0.96720242     0.01900
F1040       F  0.57621344  0.94667964  0.97477565    -0.12400
F1041       F  0.58385519  0.96239174  0.56049658    -0.13000
C1042       C  0.64348284  0.98479780  0.94422079     0.16800
C1043       C  0.65165488  0.00480700  0.92486360     0.26200
C1044       C  0.64397100  0.02268166  0.92832919    -0.40100
C1045       C  0.62822020  0.02021501  0.95169950     0.33200
C1046       C  0.62015821  0.00029882  0.97088989     0.14900
F1047       F  0.65087980  0.96764882  0.94039624    -0.12400
F1048       F  0.62081376  0.03725686  0.95639636    -0.12900
F1049       F  0.66698464  0.00656705  0.90278182    -0.15200
F1050       F  0.60547978  0.99879475  0.99360292    -0.13800
F1051       F  0.60004890  0.99208186  0.51334472    -0.13800
F1052       F  0.61711580  0.91272685  0.52136964    -0.15200
C1053       C  0.40794557  0.87024245  0.60698282     0.14900
C1054       C  0.42593671  0.87946968  0.62915688     0.01800
C1055       C  0.42258232  0.89168866  0.65285256     0.16800
C1056       C  0.40214959  0.89558880  0.65384366     0.26200
C1057       C  0.38463761  0.88742857  0.63098772    -0.40100
C1058       C  0.38743869  0.87411776  0.60787472     0.33300
C1059       C  0.44927320  0.87832024  0.62647303     0.01900
F1060       F  0.43987181  0.90107861  0.67436389    -0.12400
F1061       F  0.37087107  0.86556364  0.58561114    -0.13000
C1062       C  0.46592753  0.89094168  0.60371622     0.16800
C1063       C  0.48869980  0.89128793  0.60172650     0.26200
C1064       C  0.49542447  0.87902955  0.62261425    -0.40100
C1065       C  0.47859142  0.86630092  0.64541117     0.33200
C1066       C  0.45572974  0.86597384  0.64728865     0.14900
F1067       F  0.46055355  0.90384177  0.58397081    -0.12400
F1068       F  0.48427790  0.85435060  0.66606079    -0.12900
F1069       F  0.50446720  0.90439327  0.57974521    -0.15200
F1070       F  0.43988644  0.85366831  0.66950935    -0.13800
F1071       F  0.41057823  0.85794011  0.58410991    -0.13800
F1072       F  0.40013726  0.90821866  0.67678566    -0.15200
C1073       C  0.60638727  0.62405951  0.84134739     0.14900
C1074       C  0.63043841  0.64290124  0.83291230     0.01800
C1075       C  0.63981195  0.66728152  0.84376643     0.16800
C1076       C  0.62603090  0.67237294  0.86407342     0.26200
C1077       C  0.60260324  0.65309937  0.87400043    -0.40100
C1078       C  0.59262157  0.62905590  0.86164206     0.33300
C1079       C  0.64581865  0.63676551  0.81342543     0.01900
F1080       F  0.66290429  0.68592144  0.83582410    -0.12400
F1081       F  0.56978073  0.61004563  0.86978442    -0.13000
C1082       C  0.65418089  0.64882466  0.78665429     0.16800
C1083       C  0.66700099  0.64163814  0.76742801     0.26200
C1084       C  0.67161504  0.62203785  0.77445896    -0.40100
C1085       C  0.66420087  0.61078045  0.80191733     0.33200
C1086       C  0.65147711  0.61811227  0.82116135     0.14900
F1087       F  0.64886649  0.66677580  0.77849243    -0.12400
F1088       F  0.66823236  0.59190875  0.80976440    -0.12900
F1089       F  0.67407876  0.65336665  0.74144192    -0.15200
F1090       F  0.64426685  0.60665855  0.84729361    -0.13800
F1091       F  0.59634230  0.60061115  0.83019315    -0.13800
F1092       F  0.63629956  0.69585657  0.87513675    -0.15200
C1093       C  0.65326757  0.64462013  0.53154543     0.14900
C1094       C  0.64017007  0.63162097  0.55633828     0.01800
C1095       C  0.61503166  0.62504604  0.55993563     0.16800
C1096       C  0.60304390  0.63150067  0.53897086     0.26200
C1097       C  0.61608611  0.64464286  0.51399213    -0.40100
C1098       C  0.64131276  0.65105102  0.51042036     0.33300
C1099       C  0.65253157  0.62470420  0.57861926     0.01900
F1100       F  0.60224193  0.61271777  0.58406648    -0.12400
F1101       F  0.65431316  0.66317945  0.48632953    -0.16600
C1102       C  0.66994932  0.64291848  0.59743624     0.16800
C1103       C  0.67962266  0.63588671  0.62056618     0.26200
C1104       C  0.67197498  0.61045278  0.62508222    -0.40100
C1105       C  0.65544595  0.59244888  0.60512198     0.33200
C1106       C  0.64569779  0.59955736  0.58222557     0.14900
F1107       F  0.67669130  0.66736094  0.59413694    -0.12400
F1108       F  0.64807075  0.56782260  0.60812156    -0.12900
F1109       F  0.69570136  0.65388665  0.63905720    -0.15200
F1110       F  0.62909604  0.58180634  0.56386839    -0.13800
F1111       F  0.67752520  0.65077430  0.52769734    -0.13800
F1112       F  0.65489580  0.67255660  0.98636458    -0.15200
C1113       C  0.55397117  0.78256867  0.56257899     0.14900
C1114       C  0.57746095  0.78552367  0.55547939     0.01800
C1115       C  0.59917020  0.80633568  0.56649776     0.16800
C1116       C  0.59750172  0.82466402  0.58281030     0.26200
C1117       C  0.57400191  0.82251340  0.58853249    -0.40100
C1118       C  0.55222013  0.80079257  0.57894390     0.33300
C1119       C  0.57926311  0.76709666  0.53622124     0.01900
F1120       F  0.62210779  0.80943403  0.56045224    -0.12400
F1121       F  0.52913468  0.79730541  0.58498815    -0.13000
C1122       C  0.57201325  0.76469888  0.50700455     0.16800
C1123       C  0.56604981  0.73947162  0.99311374     0.26200
C1124       C  0.58145864  0.72919023  0.99892229    -0.40100
C1125       C  0.58920872  0.73393825  0.52913518     0.33200
C1126       C  0.58804158  0.75168515  0.54699790     0.14900
F1127       F  0.55165531  0.76766208  0.00502048    -0.12400
F1128       F  0.59773122  0.71941739  0.54076784    -0.12900
F1129       F  0.54968097  0.73094296  0.97066242    -0.15200
F1130       F  0.59490426  0.75336648  0.57516150    -0.13800
F1131       F  0.53265143  0.76199493  0.55349392    -0.13800
F1132       F  0.61901880  0.84507539  0.59178298    -0.15200
C1133       C  0.35063200  0.35402393  0.53542844     0.14900
C1134       C  0.35330908  0.36217225  0.56422894     0.01800
C1135       C  0.34423176  0.37822308  0.57214480     0.16800
C1136       C  0.33387185  0.38699730  0.55142237     0.26200
C1137       C  0.33235922  0.37993284  0.52220323    -0.40100
C1138       C  0.34033266  0.36280860  0.51463140     0.33300
C1139       C  0.36784044  0.35623966  0.58537215     0.01900
F1140       F  0.34615135  0.38606052  0.59995166    -0.12400
F1141       F  0.33888982  0.35505811  0.48685617    -0.13000
C1142       C  0.38962017  0.37591278  0.59773278     0.16800
C1143       C  0.40297689  0.37120909  0.61874558     0.26200
C1144       C  0.39488948  0.34658675  0.62820712    -0.40100
C1145       C  0.37371135  0.32665561  0.61479002     0.33200
C1146       C  0.36034409  0.33146304  0.59349616     0.14900
F1147       F  0.39797454  0.39993206  0.58949017    -0.12400
F1148       F  0.36531340  0.30263781  0.62304519    -0.12900
F1149       F  0.42370446  0.39104665  0.63020323    -0.15200
F1150       F  0.33954293  0.31199646  0.58165853    -0.13800
F1151       F  0.35929286  0.33864218  0.52705895    -0.13800
F1152       F  0.32659589  0.40347548  0.55978642    -0.15200
C1153       C  0.32372110  0.35446504  0.84263995     0.14900
C1154       C  0.33473888  0.37062082  0.81905016     0.01800
C1155       C  0.33463541  0.39326687  0.81799311     0.16800
C1156       C  0.32573865  0.40078707  0.84146654     0.26200
C1157       C  0.31686419  0.38572153  0.86637979    -0.40100
C1158       C  0.31467415  0.36187672  0.86612593     0.33300
C1159       C  0.34989389  0.36584459  0.79814877     0.01900
F1160       F  0.34450106  0.40872007  0.79486071    -0.12400
F1161       F  0.30569082  0.34656199  0.88948032    -0.13000
C1162       C  0.33882550  0.34544699  0.77910144     0.16800
C1163       C  0.35383119  0.34032397  0.76086829     0.26200
C1164       C  0.38019173  0.35548038  0.76167497    -0.40100
C1165       C  0.39107664  0.37619535  0.78054119     0.33200
C1166       C  0.37604450  0.38125988  0.79857813     0.14900
F1167       F  0.31352252  0.33051920  0.77822330    -0.12400
F1168       F  0.41632973  0.39132473  0.78214338    -0.12900
F1169       F  0.34251434  0.32049018  0.74257884    -0.15200
F1170       F  0.38710276  0.40081666  0.81729974    -0.13800
F1171       F  0.32366724  0.33246353  0.84399735    -0.13800
F1172       F  0.32681333  0.42328266  0.84027963    -0.15200
C1173       C  0.45876607  0.56961038  0.98837858     0.14900
C1174       C  0.44395257  0.56190009  0.96333594     0.01800
C1175       C  0.45279435  0.57656512  0.93821434     0.16800
C1176       C  0.47658371  0.59802371  0.93768728     0.26200
C1177       C  0.49212035  0.60508881  0.96228175    -0.40100
C1178       C  0.48266338  0.59097116  0.98788218     0.33300
C1179       C  0.42060672  0.53724367  0.96230952     0.01900
F1180       F  0.43866663  0.56952830  0.91380831    -0.12400
F1181       F  0.49681066  0.59734168  0.01225427    -0.13000
C1182       C  0.39938645  0.53240539  0.97857112     0.16800
C1183       C  0.37730391  0.50902322  0.97669037     0.26200
C1184       C  0.37618047  0.49009431  0.95851522    -0.40100
C1185       C  0.39786290  0.49497019  0.94294916     0.33200
C1186       C  0.41972798  0.51825799  0.94481875     0.14900
F1187       F  0.39991960  0.55049530  0.99578846    -0.12400
F1188       F  0.39812353  0.47713837  0.92598026    -0.12900
F1189       F  0.38283888  0.49392924  0.50797223    -0.15200
F1190       F  0.44030412  0.52223109  0.92970738    -0.13800
F1191       F  0.45066171  0.55564992  0.01285599    -0.13800
F1192       F  0.48488266  0.61100427  0.91257336    -0.15200
C1193       C  0.97834303  0.33810958  0.61852135     0.14900
C1194       C  0.97407907  0.34418315  0.64642735     0.01800
C1195       C  0.95025034  0.34070460  0.65308131     0.16800
C1196       C  0.93134027  0.33213186  0.63198782     0.26200
C1197       C  0.93579826  0.32673331  0.60369776    -0.40100
C1198       C  0.95948587  0.32944394  0.59744960     0.33300
C1199       C  0.99466472  0.35479077  0.66828483     0.01900
F1200       F  0.94556856  0.34658324  0.67977729    -0.12400
F1201       F  0.96483549  0.32444162  0.57062343    -0.13000
C1202       C  0.01703481  0.37741704  0.66292753     0.16800
C1203       C  0.03590812  0.38808723  0.68404106     0.26200
C1204       C  0.03294411  0.37625832  0.71099294    -0.40100
C1205       C  0.01073182  0.35322116  0.71594840     0.33200
C1206       C  0.99185513  0.34269495  0.69488455     0.14900
F1207       F  0.02022899  0.38972125  0.63756651    -0.12400
F1208       F  0.00666045  0.34128718  0.74172405    -0.12900
F1209       F  0.05687450  0.41026468  0.67823853    -0.15200
F1210       F  0.97065197  0.32067628  0.70058112    -0.13800
F1211       F  0.00093576  0.34072549  0.61157470    -0.13800
F1212       F  0.90892491  0.32983767  0.63911830    -0.15200
C1213       C  0.98359905  0.36755304  0.87496963     0.14900
C1214       C  0.98868903  0.35583515  0.89774403     0.01800
C1215       C  0.01044292  0.35406037  0.89732945     0.16800
C1216       C  0.02726956  0.36425882  0.87438180     0.26200
C1217       C  0.02255041  0.37656107  0.85175474    -0.40100
C1218       C  0.00047721  0.37795605  0.85209448     0.33300
C1219       C  0.97208954  0.34698041  0.92290285     0.01900
F1220       F  0.01565362  0.34305270  0.91955576    -0.12400
F1221       F  0.99528273  0.38942980  0.83037257    -0.13000
C1222       C  0.95082910  0.32305227  0.92296508     0.16800
C1223       C  0.93451697  0.31514631  0.94658391     0.26200
C1224       C  0.93933434  0.33125229  0.97037809    -0.40100
C1225       C  0.96109984  0.35511685  0.97028912     0.33200
C1226       C  0.97731598  0.36286490  0.94668432     0.14900
F1227       F  0.94584262  0.30749191  0.90003678    -0.12400
F1228       F  0.96680945  0.37101416  0.99301508    -0.12900
F1229       F  0.91386085  0.29195987  0.94585319    -0.15200
F1230       F  0.99804755  0.38602510  0.94683307    -0.13800
F1231       F  0.96258942  0.36944149  0.87533681    -0.13800
F1232       F  0.04872360  0.36317584  0.87502953    -0.15200
C1233       C  0.08844495  0.52452325  0.80737638     0.14900
C1234       C  0.10901415  0.54331555  0.79227745     0.01800
C1235       C  0.12440708  0.53700157  0.77624295     0.16800
C1236       C  0.11914600  0.51215655  0.77501451     0.26200
C1237       C  0.09816026  0.49308625  0.78961326    -0.40100
C1238       C  0.08301351  0.49967132  0.80606458     0.33300
C1239       C  0.11304703  0.56903823  0.79133793     0.01900
F1240       F  0.14445600  0.55494626  0.76155450    -0.12400
F1241       F  0.06264252  0.48206390  0.82064083    -0.13000
C1242       C  0.11868227  0.58362900  0.81654359     0.16800
C1243       C  0.12034485  0.60713433  0.81573048     0.26200
C1244       C  0.11610833  0.61625145  0.78968486    -0.40100
C1245       C  0.11119731  0.60176927  0.76433896     0.33200
C1246       C  0.10967790  0.57844932  0.76521920     0.14900
F1247       F  0.12214616  0.57488799  0.84201867    -0.12400
F1248       F  0.10729589  0.60986993  0.73863832    -0.12900
F1249       F  0.12503776  0.62040966  0.84063386    -0.15200
F1250       F  0.10376743  0.56448563  0.74070762    -0.13800
F1251       F  0.07300726  0.53011126  0.82254196    -0.13800
F1252       F  0.13445019  0.50681675  0.75922565    -0.15200
C1253       C  0.22036819  0.43897111  0.89802810     0.14900
C1254       C  0.20219056  0.41704714  0.88402227     0.01800
C1255       C  0.20318067  0.39493004  0.88749991     0.16800
C1256       C  0.22217157  0.39480046  0.90403648     0.26200
C1257       C  0.24076943  0.41684741  0.91748759    -0.40100
C1258       C  0.23949458  0.43891160  0.91444972     0.33300
C1259       C  0.18209726  0.41713202  0.86604591     0.01900
F1260       F  0.18568926  0.37333031  0.87480212    -0.12400
F1261       F  0.25693010  0.46056357  0.92711653    -0.13000
C1262       C  0.17856466  0.40933973  0.83691520     0.16800
C1263       C  0.15926998  0.40895095  0.82031339     0.26200
C1264       C  0.14313781  0.41651086  0.83243156    -0.40100
C1265       C  0.14689165  0.42443424  0.86162524     0.33200
C1266       C  0.16602897  0.42467110  0.87813114     0.14900
F1267       F  0.19402342  0.40234059  0.82438386    -0.12400
F1268       F  0.13194202  0.43191139  0.87454019    -0.12900
F1269       F  0.15625408  0.40089510  0.79251284    -0.15200
F1270       F  0.16845216  0.43173505  0.90630238    -0.13800
F1271       F  0.22007401  0.46070700  0.89507789    -0.13800
F1272       F  0.22299033  0.37326889  0.90568917    -0.15200
loop_ 
_geom_bond_atom_site_label_1 
_geom_bond_atom_site_label_2 
_geom_bond_distance 
_geom_bond_site_symmetry_2 
_ccdc_geom_bond_type 
O1            C4   1.262       .  A
O1           Cd6   2.424       .  S
C2           O11   1.267       .  A
C2            O7   1.263       .  A
C2          C581   1.476       .  S
O3            C9   1.267       .  A
O3           Cd6   2.519       .  S
C4           O12   1.271       .  A
C4          C601   1.491       .  S
C5           O10   1.271       .  A
C5            O8   1.261       .  A
C5          C628   1.500       .  S
Cd6          O13   2.492       .  S
Cd6          O12   2.521       .  S
Cd6          O11   2.466       .  S
Cd6           O7   2.408       .  S
Cd6          O10   2.559       .  S
Cd6           O8   2.453       .  S
C9           O13   1.264       .  A
C9          C568   1.500       .  S
O14          C17   1.265       .  A
O14         Cd19   2.448       .  S
C15          O24   1.266       .  A
C15          O20   1.265       .  A
C15         C521   1.473       .  S
O16          C22   1.262       .  A
O16         Cd19   2.459       .  S
C17          O25   1.269       .  A
C17         C548   1.488       .  S
C18          O23   1.265       .  A
C18          O21   1.263       .  A
C18         C621   1.499       .  S
Cd19         O26   2.535       .  S
Cd19         O25   2.499       .  S
Cd19         O24   2.451       .  S
Cd19         O20   2.424       .  S
Cd19         O23   2.512       .  S
Cd19         O21   2.494       .  S
C22          O26   1.271       .  A
C22        C1137   1.496       .  S
O27          C30   1.263       .  A
O27         Cd32   2.429       .  S
C28          O33   1.266       .  A
C28         O673   1.265       .  A
C28         C461   1.480   1_556  S
O29          C35   1.265       .  A
O29         Cd32   2.512       .  S
C30          O38   1.270       .  A
C30         C541   1.490       .  S
C31          O36   1.271       .  A
C31          O34   1.258       .  A
C31         C488   1.499       .  S
Cd32         O39   2.506       .  S
Cd32         O38   2.509       .  S
Cd32         O37   2.431       .  S
Cd32         O36   2.574       .  S
Cd32         O34   2.442       .  S
Cd32        O669   2.450       .  S
O33        Cd668   2.435       .  S
C35          O39   1.265       .  A
C35         C441   1.501       .  S
O37         C664   1.266       .  A
O40          C43   1.263       .  A
O40         Cd45   2.416       .  S
C41          O50   1.265       .  A
C41          O46   1.265       .  A
C41         C401   1.478       .  S
O42          C48   1.270       .  A
O42         Cd45   2.530       .  S
C43          O51   1.270       .  A
C43         C428   1.488       .  S
C44          O49   1.262       .  A
C44          O47   1.265       .  A
C44         C481   1.488       .  S
Cd45         O52   2.426       .  S
Cd45         O51   2.509       .  S
Cd45         O50   2.447       .  S
Cd45         O46   2.437       .  S
Cd45         O49   2.461       .  S
Cd45         O47   2.487       .  S
C48          O52   1.261       .  A
C48         C388   1.491       .  S
O53          C56   1.262       .  A
O53         Cd58   2.405       .  S
C54          O63   1.267       .  A
C54          O59   1.264       .  A
C54         C348   1.476       .  S
O55          C61   1.262       .  A
O55         Cd58   2.446       .  S
C56          O64   1.271       .  A
C56         C421   1.487       .  S
C57          O62   1.272       .  A
C57          O60   1.261       .  A
C57         C328   1.492       .  S
Cd58         O65   2.535       .  S
Cd58         O64   2.511       .  S
Cd58         O63   2.454       .  S
Cd58         O59   2.424       .  S
Cd58         O62   2.541       .  S
Cd58         O60   2.429       .  S
C61          O65   1.269       .  A
C61         C368   1.495       .  S
O66          C69   1.263       .  A
O66         Cd71   2.434       .  S
C67          O76   1.266       .  A
C67          O72   1.264       .  A
C67         C308   1.476       .  S
O68          C74   1.270       .  A
O68         Cd71   2.544       .  S
C69          O77   1.270       .  A
C69         C608   1.488       .  S
C70          O75   1.264       .  A
C70          O73   1.262       .  A
C70         C321   1.493       .  S
Cd71         O78   2.436       .  S
Cd71         O77   2.514       .  S
Cd71         O76   2.464       .  S
Cd71         O72   2.423       .  S
Cd71         O75   2.507       .  S
Cd71         O73   2.485       .  S
C74          O78   1.261       .  A
C74         C281   1.495       .  S
O79          C82   1.264       .  A
O79         Cd84   2.431       .  S
C80          O89   1.266       .  A
C80          O85   1.265       .  A
C80         C301   1.478       .  S
O81          C87   1.266       .  A
O81        Cd720   2.494       .  S
C82          O90   1.270       .  A
C82         C241   1.488       .  S
C83          O88   1.269       .  A
C83          O86   1.261       .  A
C83         C268   1.493       .  S
Cd84         O91   2.483   1_554  S
Cd84         O90   2.496       .  S
Cd84         O89   2.462       .  S
Cd84         O85   2.429       .  S
Cd84         O88   2.543       .  S
Cd84         O86   2.447       .  S
Cd84        O717   2.501       .  S
C87         O727   1.265       .  A
C87         C288   1.492       .  S
O91         C723   1.265       .  A
O92          C95   1.264       .  A
O92         Cd97   2.434       .  S
C93         O102   1.267       .  A
C93          O98   1.265       .  A
C93         C468   1.479       .  S
O94         C100   1.270       .  A
O94         Cd97   2.540       .  S
C95         O103   1.269       .  A
C95         C228   1.485       .  S
C96         O101   1.265       .  A
C96          O99   1.265       .  A
C96         C261   1.493       .  S
Cd97        O104   2.474       .  S
Cd97        O103   2.493       .  S
Cd97        O102   2.463       .  S
Cd97         O98   2.436       .  S
Cd97        O101   2.482       .  S
Cd97         O99   2.502       .  S
C100        O104   1.263       .  A
C100        C448   1.499       .  S
O105        C108   1.265       .  A
O105       Cd110   2.447       .  S
C106        O115   1.269       .  A
C106        O111   1.265       .  A
C106        C188   1.489       .  S
O107        C113   1.268       .  A
O107       Cd110   2.511       .  S
C108        O116   1.264       .  A
C108        C408   1.477       .  S
C109        O114   1.262       .  A
C109        O112   1.266       .  A
C109        C381   1.490       .  S
Cd110       O117   2.450       .  S
Cd110       O116   2.448       .  S
Cd110       O115   2.487       .  S
Cd110       O111   2.448       .  S
Cd110       O114   2.449       .  S
Cd110       O112   2.518       .  S
C113        O117   1.262       .  A
C113        C201   1.487       .  S
O118        C121   1.264       .  A
O118       Cd123   2.433       .  S
C119        O124   1.264       .  A
C119        O764   1.265       .  A
C119        C588   1.471       .  S
O120        C126   1.269       .  A
O120       Cd123   2.529       .  S
C121        O129   1.269       .  A
C121        C248   1.484       .  S
C122        O127   1.266       .  A
C122        O761   1.263       .  A
C122        C844   1.493       .  S
Cd123       O130   2.463       .  S
Cd123       O129   2.497       .  S
Cd123       O128   2.456   1_554  S
Cd123       O127   2.499       .  S
Cd123       O760   2.430       .  S
Cd123       O761   2.485       .  S
O124       Cd759   2.428       .  S
O125        C758   1.266       .  A
O125       Cd759   2.498       .  S
C126        O130   1.262       .  A
C126        C561   1.497       .  S
O128        C755   1.265       .  A
O131        C134   1.267       .  A
O131       Cd136   2.442       .  S
C132        O141   1.270       .  A
C132        O137   1.263       .  A
C132        C221   1.486       .  S
O133        C139   1.260       .  A
O133       Cd136   2.440       .  S
C134        O142   1.266       .  A
C134        C528   1.477       .  S
C135        O140   1.260       .  A
C135        O138   1.271       .  A
C135        C508   1.499       .  S
Cd136       O143   2.558       .  S
Cd136       O142   2.422       .  S
Cd136       O141   2.494       .  S
Cd136       O137   2.425       .  S
Cd136       O140   2.435       .  S
Cd136       O138   2.556       .  S
C139        O143   1.271       .  A
C139        C168   1.498       .  S
O144        C147   1.265       .  A
O144       Cd149   2.443       .  S
C145        O154   1.269       .  A
C145        O150   1.264       .  A
C145        C181   1.490       .  S
O146        C152   1.262       .  A
O146       Cd149   2.486       .  S
C147        O155   1.265       .  A
C147        C341   1.476       .  S
C148        O153   1.262       .  A
C148        O151   1.269       .  A
C148        C361   1.494       .  S
Cd149       O156   2.513       .  S
Cd149       O155   2.435       .  S
Cd149       O154   2.503       .  S
Cd149       O150   2.440       .  S
Cd149       O153   2.456       .  S
Cd149       O151   2.521       .  S
C152        O156   1.264       .  A
C152        C161   1.495       .  S
C157        C158   1.405       .  A
C157        C162   1.403       .  A
C157        F175   1.358       .  S
C158        C163   1.492       .  S
C158        C159   1.407       .  A
C159        C160   1.405       .  A
C159        F164   1.358       .  S
C160        C161   1.412       .  A
C160        F176   1.358       .  S
C161        C162   1.412       .  A
C162        F165   1.358       .  S
C163        C166   1.409       .  A
C163        C170   1.402       .  A
C166        C167   1.408       .  A
C166        F171   1.358       .  S
C167        C168   1.410       .  A
C167        F173   1.357       .  S
C168        C169   1.416       .  A
C169        C170   1.400       .  A
C169        F172   1.358       .  S
C170        F174   1.358       .  S
C177        C178   1.405       .  A
C177        C182   1.404       .  A
C177        F195   1.358       .  S
C178        C183   1.483       .  S
C178        C179   1.403       .  A
C179        C180   1.398       .  A
C179        F184   1.358       .  S
C180        C181   1.412       .  A
C180        F196   1.358       .  S
C181        C182   1.411       .  A
C182        F185   1.357       .  S
C183        C186   1.403       .  A
C183        C190   1.406       .  A
C186        C187   1.399       .  A
C186        F191   1.358       .  S
C187        C188   1.412       .  A
C187        F193   1.358       .  S
C188        C189   1.411       .  A
C189        C190   1.402       .  A
C189        F192   1.358       .  S
C190        F194   1.358       .  S
C197        C198   1.406       .  A
C197        C202   1.401       .  A
C197        F215   1.358       .  S
C198        C203   1.490       .  S
C198        C199   1.408       .  A
C199        C200   1.403       .  A
C199        F204   1.358       .  S
C200        C201   1.408       .  A
C200        F216   1.358       .  S
C201        C202   1.410       .  A
C202        F205   1.358       .  S
C203        C206   1.405       .  A
C203        C210   1.407       .  A
C206        C843   1.402       .  A
C206        F847   1.358       .  S
C207        C842   1.402   1_554  A
C207        C844   1.411       .  A
C207        F213   1.357       .  S
C208        C758   1.491       .  S
C208        C209   1.410       .  A
C208        C843   1.412       .  A
C209        C210   1.403       .  A
C209        F212   1.357       .  S
C210        F214   1.358       .  S
F211        C842   1.358       .  S
C217        C218   1.404       .  A
C217        C222   1.397       .  A
C217        F235   1.358       .  S
C218        C223   1.484       .  S
C218        C219   1.406       .  A
C219        C220   1.401       .  A
C219        F224   1.358       .  S
C220        C221   1.409       .  A
C220        F236   1.357       .  S
C221        C222   1.412       .  A
C222        F225   1.358       .  S
C223        C226   1.406       .  A
C223        C230   1.404       .  A
C226        C227   1.401       .  A
C226        F231   1.358       .  S
C227        C228   1.409       .  A
C227        F233   1.358       .  S
C228        C229   1.411       .  A
C229        C230   1.397       .  A
C229        F232   1.358       .  S
C230        F234   1.358       .  S
C237        C238   1.407       .  A
C237        C242   1.402       .  A
C237        F891   1.358       .  S
C238        C243   1.486       .  S
C238        C239   1.404       .  A
C239        C240   1.397       .  A
C239        F244   1.358       .  S
C240        C241   1.411       .  A
C240        F256   1.358       .  S
C241        C242   1.410       .  A
C242        F881   1.357       .  S
C243        C246   1.405       .  A
C243        C250   1.408       .  A
F245        C878   1.357       .  S
C246        C247   1.398       .  A
C246        F251   1.358   1_554  S
C247        C248   1.409       .  A
C247        F253   1.358   1_554  S
C248        C249   1.408       .  A
C249        C250   1.402       .  A
C249        F252   1.358       .  S
C250        F254   1.358       .  S
F255        C873   1.357       .  S
C257        C258   1.406       .  A
C257        C262   1.401       .  A
C257        F275   1.358       .  S
C258        C263   1.494       .  S
C258        C259   1.409       .  A
C259        C260   1.405       .  A
C259        F264   1.358       .  S
C260        C261   1.411       .  A
C260        F276   1.358       .  S
C261        C262   1.411       .  A
C262        F265   1.358       .  S
C263        C266   1.404       .  A
C263        C270   1.411       .  A
C266        C267   1.400       .  A
C266        F271   1.358       .  S
C267        C268   1.412       .  A
C267        F273   1.358       .  S
C268        C269   1.409       .  A
C269        C270   1.407       .  A
C269        F272   1.357       .  S
C270        F274   1.358       .  S
C277        C278   1.409       .  A
C277        C282   1.407       .  A
C277        F295   1.358       .  S
C278        C283   1.491   1_455  S
C278        C279   1.403       .  A
C279        C280   1.399       .  A
C279        F284   1.358   1_455  S
C280        C281   1.414       .  A
C280        F296   1.358       .  S
C281        C282   1.411       .  A
C282        F285   1.357       .  S
C283        C286   1.405       .  A
C283        C290   1.408       .  A
C286        C287   1.403       .  A
C286        F291   1.358   1_655  S
C287        C288   1.412       .  A
C287        F293   1.358       .  S
C288        C289   1.410       .  A
C289        C290   1.403       .  A
C289        F292   1.358       .  S
C290        F294   1.358       .  S
C297        C298   1.402       .  A
C297        C302   1.392   1_455  A
C297        F315   1.358       .  S
C298        C303   1.470       .  S
C298        C299   1.402       .  A
C299        C300   1.399   1_455  A
C299        F304   1.358       .  S
C300        C301   1.411       .  A
C300        F316   1.358       .  S
C301        C302   1.409       .  A
C302        F305   1.358       .  S
C303        C306   1.401       .  A
C303        C310   1.403       .  A
C306        C307   1.394       .  A
C306        F311   1.358       .  S
C307        C308   1.409       .  A
C307        F313   1.358       .  S
C308        C309   1.409       .  A
C309        C310   1.398       .  A
C309        F312   1.358       .  S
C310        F314   1.358       .  S
C317        C318   1.405       .  A
C317        C322   1.401       .  A
C317        F335   1.358       .  S
C318        C323   1.492       .  S
C318        C319   1.408       .  A
C319        C320   1.404       .  A
C319        F324   1.358       .  S
C320        C321   1.411       .  A
C320        F336   1.358       .  S
C321        C322   1.412       .  A
C322        F325   1.358       .  S
C323        C326   1.410       .  A
C323        C330   1.404       .  A
C326        C327   1.406       .  A
C326        F331   1.358       .  S
C327        C328   1.409       .  A
C327        F333   1.357       .  S
C328        C329   1.413       .  A
C329        C330   1.399       .  A
C329        F332   1.358       .  S
C330        F334   1.358       .  S
C337        C338   1.400       .  A
C337        C342   1.395       .  A
C337        F355   1.358       .  S
C338        C343   1.467       .  S
C338        C339   1.401       .  A
C339        C340   1.395       .  A
C339        F344   1.358       .  S
C340        C341   1.410       .  A
C340        F356   1.358       .  S
C341        C342   1.410       .  A
C342        F345   1.358       .  S
C343        C346   1.401   1_545  A
C343        C350   1.400       .  A
C346        C347   1.393       .  A
C346        F351   1.359   1_565  S
C347        C348   1.410       .  A
C347        F353   1.358       .  S
C348        C349   1.410       .  A
C349        C350   1.397   1_565  A
C349        F352   1.358       .  S
C350        F354   1.358       .  S
C357        C358   1.404       .  A
C357        C362   1.401       .  A
C357        F375   1.358   1_545  S
C358        C999   1.492   1_545  S
C358        C359   1.408       .  A
C359        C360   1.404       .  A
C359        F364   1.358       .  S
C360        C361   1.409       .  A
C360        F376   1.357       .  S
C361        C362   1.414       .  A
C362        F365   1.358       .  S
C363        C994   1.491   1_554  S
C363        C366   1.403   1_545  A
C363        C370   1.408   1_545  A
C366        C367   1.400       .  A
C366       F1007   1.358   1_565  S
C367        C368   1.413       .  A
C367        F373   1.358       .  S
C368        C369   1.411       .  A
C369        C370   1.407       .  A
C369        F372   1.357       .  S
C370        F374   1.358   1_554  S
F371       C1002   1.358   1_545  S
C377        C378   1.404       .  A
C377        C382   1.396       .  A
C377        F395   1.358       .  S
C378        C383   1.486   1_545  S
C378        C379   1.406       .  A
C379        C380   1.406       .  A
C379        F384   1.358       .  S
C380        C381   1.412       .  A
C380        F396   1.357       .  S
C381        C382   1.410       .  A
C382        F385   1.358       .  S
C383        C386   1.402       .  A
C383        C390   1.407       .  A
C386        C387   1.396       .  A
C386        F391   1.358   1_565  S
C387        C388   1.413       .  A
C387        F393   1.358       .  S
C388        C389   1.411       .  A
C389        C390   1.406       .  A
C389        F392   1.357       .  S
C390        F394   1.358       .  S
C397        C398   1.402   1_554  A
C397        C402   1.397       .  A
C397        F415   1.358       .  S
C398       C1039   1.473       .  S
C398       C1035   1.403       .  A
C399       C1034   1.404       .  A
C399       C1036   1.399       .  A
C399        F404   1.358       .  S
C400        C401   1.409       .  A
C400       C1035   1.394   1_554  A
C400        F416   1.358       .  S
C401        C402   1.410       .  A
C402        F405   1.358       .  S
C403       C1034   1.474       .  S
C403        C406   1.403       .  A
C403        C410   1.404       .  A
C406        C407   1.397   1_565  A
C406        F411   1.358       .  S
C407        C408   1.410       .  A
C407        F413   1.358       .  S
C408        C409   1.408       .  A
C409        C410   1.395   1_545  A
C409        F412   1.358       .  S
C410        F414   1.358       .  S
C417        C418   1.408       .  A
C417        C422   1.403       .  A
C417        F435   1.358       .  S
C418        C423   1.485       .  S
C418        C419   1.403       .  A
C419        C420   1.395       .  A
C419        F424   1.358       .  S
C420        C421   1.412       .  A
C420        F436   1.358       .  S
C421        C422   1.409       .  A
C422        F425   1.358       .  S
C423        C426   1.403       .  A
C423        C430   1.408       .  A
C426        C427   1.395       .  A
C426        F431   1.358       .  S
C427        C428   1.412       .  A
C427        F433   1.358       .  S
C428        C429   1.410       .  A
C429        C430   1.403       .  A
C429        F432   1.358       .  S
C430        F434   1.358       .  S
C437        C438   1.407       .  A
C437        C442   1.405       .  A
C437        F455   1.358       .  S
C438        C443   1.497       .  S
C438        C439   1.406       .  A
C439        C440   1.407       .  A
C439        F444   1.358       .  S
C440        C441   1.414       .  A
C440        F456   1.357       .  S
C441        C442   1.412       .  A
C442        F445   1.358       .  S
C443        C446   1.405       .  A
C443        C450   1.409       .  A
C446        C447   1.404       .  A
C446        F451   1.358       .  S
C447        C448   1.413       .  A
C447        F453   1.358       .  S
C448        C449   1.411       .  A
C449        C450   1.408       .  A
C449        F452   1.357       .  S
C450        F454   1.358       .  S
C457        C458   1.404       .  A
C457        C462   1.393       .  A
C457        F475   1.358       .  S
C458        C463   1.475       .  S
C458        C459   1.403       .  A
C459        C460   1.399       .  A
C459        F464   1.358       .  S
C460        C461   1.412       .  A
C460       F1112   1.358   1_554  S
C461        C462   1.408       .  A
C462        F465   1.358       .  S
C463        C466   1.403       .  A
C463        C470   1.404       .  A
C466        C467   1.396       .  A
C466        F471   1.358       .  S
C467        C468   1.410       .  A
C467        F473   1.358       .  S
C468        C469   1.409       .  A
C469        C470   1.397       .  A
C469        F472   1.357       .  S
C470        F474   1.358       .  S
F476       C1096   1.358       .  S
C477        C478   1.405       .  A
C477        C482   1.400       .  A
C477        F495   1.358       .  S
C478        C483   1.485       .  S
C478        C479   1.404       .  A
C479        C480   1.400       .  A
C479        F484   1.358       .  S
C480        C481   1.412       .  A
C480        F496   1.358       .  S
C481        C482   1.411       .  A
C482        F485   1.358       .  S
C483        C486   1.407       .  A
C483        C490   1.403       .  A
C486       C1123   1.402   1_554  A
C486       F1127   1.358       .  S
C487        C488   1.410       .  A
C487       C1122   1.408       .  A
C487        F493   1.357       .  S
C488       C1125   1.416       .  A
C489        C490   1.398       .  A
C489       C1124   1.412   1_554  A
C489        F492   1.358       .  S
C490        F494   1.358       .  S
F491       C1122   1.358       .  S
C497        C498   1.405       .  A
C497        C502   1.404       .  A
C497        F515   1.358       .  S
C498        C503   1.496       .  S
C498        C499   1.409       .  A
C499        C500   1.406       .  A
C499        F504   1.358       .  S
C500        C501   1.410       .  A
C500        F516   1.357       .  S
C501        C658   1.498   1_554  S
C501        C502   1.415       .  A
C502        F505   1.358   1_554  S
C503        C506   1.404       .  A
C503        C510   1.410       .  A
C506        C507   1.399       .  A
C506        F511   1.358       .  S
C507        C508   1.414       .  A
C507        F513   1.358       .  S
C508        C509   1.411       .  A
C509        C510   1.410       .  A
C509        F512   1.357       .  S
C510        F514   1.357       .  S
C517        C518   1.401       .  A
C517        C522   1.397       .  A
C517        F535   1.358       .  S
C518        C523   1.465       .  S
C518        C519   1.400       .  A
C519        C520   1.393       .  A
C519        F524   1.358       .  S
C520        C521   1.408       .  A
C520        F536   1.358       .  S
C521        C522   1.409       .  A
C522        F525   1.358       .  S
C523        C526   1.399       .  A
C523        C530   1.400       .  A
C526        C527   1.398       .  A
C526        F531   1.358       .  S
C527        C528   1.411       .  A
C527        F533   1.358       .  S
C528        C529   1.410       .  A
C529        C530   1.392       .  A
C529        F532   1.358       .  S
C530        F534   1.359       .  S
C537        C538   1.403       .  A
C537        C542   1.397       .  A
C537        F555   1.358       .  S
C538        C543   1.485       .  S
C538        C539   1.407       .  A
C539        C540   1.404       .  A
C539        F544   1.358       .  S
C540        C541   1.411       .  A
C540        F556   1.358       .  S
C541        C542   1.412       .  A
C542        F545   1.358       .  S
C543        C546   1.407       .  A
C543        C550   1.403       .  A
C546        C547   1.403       .  A
C546        F551   1.358       .  S
C547        C548   1.409       .  A
C547       F1189   1.358       .  S
C548        C549   1.411       .  A
C549        C550   1.399       .  A
C549        F552   1.358       .  S
C550        F554   1.358       .  S
F553       C1183   1.357       .  S
C557        C558   1.402       .  A
C557        C562   1.403       .  A
C557        F575   1.358   1_655  S
C558        C563   1.489   1_655  S
C558        C559   1.406       .  A
C559        C560   1.406       .  A
C559        F564   1.358       .  S
C560        C561   1.412       .  A
C560        F576   1.357       .  S
C561        C562   1.414       .  A
C562        F565   1.358       .  S
C563        C566   1.405       .  A
C563        C570   1.403       .  A
C566        C567   1.405       .  A
C566        F571   1.358       .  S
C567        C568   1.413       .  A
C567        F573   1.357       .  S
C568        C569   1.415       .  A
C569        C570   1.405       .  A
C569        F572   1.357       .  S
C570        F574   1.358   1_455  S
C577        C578   1.399   1_455  A
C577        C582   1.393       .  A
C577        F595   1.358   1_455  S
C578        C583   1.465       .  S
C578        C579   1.401   1_655  A
C579        C580   1.396       .  A
C579        F584   1.358   1_455  S
C580        C581   1.409       .  A
C580        F596   1.358       .  S
C581        C582   1.412       .  A
C582        F585   1.358       .  S
C583        C586   1.400       .  A
C583        C590   1.401       .  A
C586        C587   1.394       .  A
C586        F591   1.358       .  S
C587        C588   1.408       .  A
C587        F593   1.358       .  S
C588        C589   1.409       .  A
C589        C590   1.393       .  A
C589        F592   1.358       .  S
C590        F594   1.358   1_655  S
C597        C598   1.402       .  A
C597        C602   1.397       .  A
C597        F615   1.358       .  S
C598        C603   1.484       .  S
C598        C599   1.407       .  A
C599        C600   1.405       .  A
C599        F604   1.357       .  S
C600        C601   1.410       .  A
C600        F616   1.357       .  S
C601        C602   1.414       .  A
C602        F605   1.358       .  S
C603        C606   1.407       .  A
C603        C610   1.402       .  A
C606        C607   1.403       .  A
C606        F611   1.358       .  S
C607        C608   1.409       .  A
C607        F613   1.357       .  S
C608        C609   1.412       .  A
C609        C610   1.399       .  A
C609        F612   1.358       .  S
C610        F614   1.358       .  S
C617        C618   1.406       .  A
C617        C622   1.405       .  A
C617        F635   1.358       .  S
C618        C623   1.493       .  S
C618        C619   1.405       .  A
C619        C620   1.405       .  A
C619        F624   1.357       .  S
C620        C621   1.412       .  A
C620        F636   1.357       .  S
C621        C622   1.414       .  A
C622        F625   1.358       .  S
C623        C626   1.409       .  A
C623        C630   1.403       .  A
C626        C627   1.409       .  A
C626        F631   1.358       .  S
C627        C628   1.411       .  A
C627        F633   1.357       .  S
C628        C629   1.415       .  A
C629        C630   1.402       .  A
C629        F632   1.358       .  S
C630        F634   1.358       .  S
O637        C640   1.264       .  A
O637       Cd642   2.435       .  S
C638        O647   1.266       .  A
C638        O643   1.266       .  A
C638       C1217   1.467       .  S
O639        C645   1.266       .  A
O639       Cd642   2.516       .  S
C640        O648   1.269       .  A
C640       C1237   1.487       .  S
C641        O646   1.272       .  A
C641        O644   1.260       .  A
C641       C1264   1.496       .  S
Cd642       O649   2.485       .  S
Cd642       O648   2.484       .  S
Cd642       O647   2.424       .  S
Cd642       O643   2.429       .  S
Cd642       O646   2.551       .  S
Cd642       O644   2.427       .  S
C645        O649   1.263       .  A
C645       C1204   1.496       .  S
O650        C653   1.264       .  A
O650       Cd655   2.435       .  S
C651        O660   1.266       .  A
C651        O656   1.266       .  A
C651       C1157   1.478       .  S
O652        C658   1.262       .  A
O652       Cd655   2.463       .  S
C653        O661   1.269       .  A
C653       C1184   1.489       .  S
C654        O659   1.267       .  A
C654        O657   1.264       .  A
C654       C1257   1.493       .  S
Cd655       O662   2.537       .  S
Cd655       O661   2.505       .  S
Cd655       O660   2.461       .  S
Cd655       O656   2.443       .  S
Cd655       O659   2.502       .  S
Cd655       O657   2.494       .  S
C658        O662   1.271       .  A
O663        C666   1.264       .  A
O663       Cd668   2.448       .  S
C664        O669   1.267       .  A
C664       C1097   1.476       .  S
O665        C671   1.268       .  A
O665       Cd668   2.504       .  S
C666        O674   1.268       .  A
C666       C1177   1.485       .  S
C667        O672   1.269       .  A
C667        O670   1.261       .  A
C667       C1124   1.487       .  S
Cd668       O675   2.446       .  S
Cd668       O674   2.481       .  S
Cd668       O673   2.450       .  S
Cd668       O672   2.518       .  S
Cd668       O670   2.434       .  S
C671        O675   1.263       .  A
C671       C1077   1.489       .  S
O676        C679   1.263       .  A
O676       Cd681   2.432       .  S
C677        O686   1.263       .  A
C677        O682   1.266       .  A
C677       C1037   1.476       .  S
O678        C684   1.268       .  A
O678       Cd681   2.525       .  S
C679        O687   1.270       .  A
C679       C1064   1.488       .  S
C680        O685   1.266       .  A
C680        O683   1.264       .  A
C680       C1117   1.495       .  S
Cd681       O688   2.456       .  S
Cd681       O687   2.503       .  S
Cd681       O686   2.421       .  S
Cd681       O682   2.473       .  S
Cd681       O685   2.509       .  S
Cd681       O683   2.488       .  S
C684        O688   1.261       .  A
C684       C1024   1.494       .  S
O689        C692   1.264       .  A
O689       Cd694   2.428       .  S
C690        O699   1.266       .  A
C690        O695   1.265       .  A
C690        C984   1.477       .  S
O691        C697   1.261       .  A
O691       Cd694   2.443       .  S
C692        O700   1.269       .  A
C692       C1057   1.486       .  S
C693        O698   1.269       .  A
C693        O696   1.261       .  A
C693        C964   1.494       .  S
Cd694       O701   2.526       .  S
Cd694       O700   2.483       .  S
Cd694       O699   2.446       .  S
Cd694       O695   2.435       .  S
Cd694       O698   2.531       .  S
Cd694       O696   2.452       .  S
C697        O701   1.269       .  A
C697       C1004   1.493       .  S
O702        C705   1.262       .  A
O702       Cd707   2.419       .  S
C703        O712   1.267       .  A
C703        O708   1.265       .  A
C703        C944   1.477       .  S
O704        C710   1.271       .  A
O704       Cd707   2.539       .  S
C705        O713   1.270       .  A
C705       C1244   1.485       .  S
C706        O711   1.265       .  A
C706        O709   1.264       .  A
C706        C957   1.498       .  S
Cd707       O714   2.456       .  S
Cd707       O713   2.509       .  S
Cd707       O712   2.439       .  S
Cd707       O708   2.435       .  S
Cd707       O711   2.504       .  S
Cd707       O709   2.500       .  S
C710        O714   1.261       .  A
C710        C917   1.498       .  S
O715        C718   1.265       .  A
O715       Cd720   2.432       .  S
C716        O725   1.265       .  A
C716        O721   1.265       .  A
C716        C937   1.472       .  S
O717        C723   1.266   1_554  A
C718        O726   1.270       .  A
C718        C877   1.483       .  S
C719        O724   1.271       .  A
C719        O722   1.259       .  A
C719        C904   1.492       .  S
Cd720       O727   2.491       .  S
Cd720       O726   2.488       .  S
Cd720       O725   2.449       .  S
Cd720       O721   2.418       .  S
Cd720       O724   2.548       .  S
Cd720       O722   2.427       .  S
C723        C924   1.493       .  S
O728        C731   1.264       .  A
O728       Cd733   2.419       .  S
C729        O738   1.265       .  A
C729        O734   1.266       .  A
C729       C1104   1.478       .  S
O730        C736   1.268       .  A
O730       Cd733   2.518       .  S
C731        O739   1.270       .  A
C731        C864   1.485       .  S
C732        O737   1.265       .  A
C732        O735   1.263       .  A
C732        C897   1.491       .  S
Cd733       O740   2.448       .  S
Cd733       O739   2.493       .  S
Cd733       O738   2.425       .  S
Cd733       O734   2.453       .  S
Cd733       O737   2.496       .  S
Cd733       O735   2.486       .  S
C736        O740   1.261       .  A
C736       C1084   1.491       .  S
O741        C744   1.265       .  A
O741       Cd746   2.419       .  S
C742        O751   1.269       .  A
C742        O747   1.264       .  A
C742        C824   1.489       .  S
O743        C749   1.270       .  A
O743       Cd746   2.530       .  S
C744        O752   1.266       .  A
C744       C1044   1.479       .  S
C745        O750   1.263       .  A
C745        O748   1.269       .  A
C745       C1017   1.494       .  S
Cd746       O753   2.441       .  S
Cd746       O752   2.462       .  S
Cd746       O751   2.505       .  S
Cd746       O747   2.443       .  S
Cd746       O750   2.452       .  S
Cd746       O748   2.524       .  S
C749        O753   1.260       .  A
C749        C837   1.493       .  S
O754        C757   1.262       .  A
O754       Cd759   2.429       .  S
C755        O760   1.264   1_556  A
C755       C1224   1.476       .  S
O756        C762   1.268       .  A
O756       Cd759   2.523       .  S
C757        O765   1.270       .  A
C757        C884   1.487       .  S
C758        O763   1.264       .  A
Cd759       O766   2.461       .  S
Cd759       O765   2.507       .  S
Cd759       O764   2.441       .  S
Cd759       O763   2.481       .  S
C762        O766   1.262       .  A
C762       C1197   1.496       .  S
O767        C770   1.266       .  A
O767       Cd772   2.449       .  S
C768        O777   1.268       .  A
C768        O773   1.264       .  A
C768        C857   1.487       .  S
O769        C775   1.261       .  A
O769       Cd772   2.441       .  S
C770        O778   1.267       .  A
C770       C1164   1.480       .  S
C771        O776   1.261       .  A
C771        O774   1.270       .  A
C771       C1144   1.493       .  S
Cd772       O779   2.530       .  S
Cd772       O778   2.435       .  S
Cd772       O777   2.490       .  S
Cd772       O773   2.448       .  S
Cd772       O776   2.425       .  S
Cd772       O774   2.543       .  S
C775        O779   1.270       .  A
C775        C804   1.490       .  S
O780        C783   1.266       .  A
O780       Cd785   2.451       .  S
C781        O790   1.269       .  A
C781        O786   1.263       .  A
C781        C817   1.490       .  S
O782        C788   1.263       .  A
O782       Cd785   2.494       .  S
C783        O791   1.266       .  A
C783        C977   1.478       .  S
C784        O789   1.260       .  A
C784        O787   1.271       .  A
C784        C997   1.496       .  S
Cd785       O792   2.504       .  S
Cd785       O791   2.441       .  S
Cd785       O790   2.509       .  S
Cd785       O786   2.430       .  S
Cd785       O789   2.431       .  S
Cd785       O787   2.554       .  S
C788        O792   1.265       .  A
C788        C797   1.493       .  S
C793        C794   1.407       .  A
C793        C798   1.404       .  A
C793        F811   1.358       .  S
C794        C799   1.494       .  S
C794        C795   1.407       .  A
C795        C796   1.403       .  A
C795        F800   1.358       .  S
C796        C797   1.411       .  A
C796        F812   1.358       .  S
C797        C798   1.411       .  A
C798        F801   1.358       .  S
C799        C802   1.410       .  A
C799        C806   1.406       .  A
C802        C803   1.405       .  A
C802        F807   1.358       .  S
C803        C804   1.408       .  A
C803        F809   1.358       .  S
C804        C805   1.411       .  A
C805        C806   1.400       .  A
C805        F808   1.358       .  S
C806        F810   1.358       .  S
C813        C814   1.406       .  A
C813        C818   1.405       .  A
C813        F831   1.358       .  S
C814        C819   1.484       .  S
C814        C815   1.403       .  A
C815        C816   1.396       .  A
C815        F820   1.358       .  S
C816        C817   1.412       .  A
C816        F832   1.358       .  S
C817        C818   1.411       .  A
C818        F821   1.357       .  S
C819        C822   1.403       .  A
C819        C826   1.406       .  A
C822        C823   1.399       .  A
C822        F827   1.358       .  S
C823        C824   1.412       .  A
C823        F829   1.358       .  S
C824        C825   1.410       .  A
C825        C826   1.403       .  A
C825        F828   1.357       .  S
C826        F830   1.358       .  S
C833        C834   1.404       .  A
C833        C838   1.400       .  A
C833        F851   1.358       .  S
C834        C839   1.491       .  S
C834        C835   1.408       .  A
C835        C836   1.405       .  A
C835        F840   1.358       .  S
C836        C837   1.409       .  A
C836        F852   1.357       .  S
C837        C838   1.414       .  A
C838        F841   1.358       .  S
C839        C842   1.406       .  A
C839        C846   1.406       .  A
C843        F849   1.358       .  S
C844        C845   1.412   1_554  A
C845        C846   1.403       .  A
C845        F848   1.358   1_556  S
C846        F850   1.358       .  S
C853        C854   1.401       .  A
C853        C858   1.399       .  A
C853        F871   1.358       .  S
C854        C859   1.477       .  S
C854        C855   1.404       .  A
C855        C856   1.400       .  A
C855        F860   1.358       .  S
C856        C857   1.410       .  A
C856        F872   1.358       .  S
C857        C858   1.412       .  A
C858        F861   1.358       .  S
C859        C862   1.404       .  A
C859        C866   1.401       .  A
C862        C863   1.402       .  A
C862        F867   1.357       .  S
C863        C864   1.410       .  A
C863        F869   1.357       .  S
C864        C865   1.412       .  A
C865        C866   1.396       .  A
C865        F868   1.358       .  S
C866        F870   1.358       .  S
C873        C874   1.405       .  A
C873        C878   1.402       .  A
C874        C879   1.481       .  S
C874        C875   1.403       .  A
C875        C876   1.398       .  A
C875        F880   1.358       .  S
C876        C877   1.410       .  A
C876        F892   1.358       .  S
C877        C878   1.408       .  A
C879        C882   1.402       .  A
C879        C886   1.405       .  A
C882        C883   1.396       .  A
C882        F887   1.358       .  S
C883        C884   1.413       .  A
C883        F889   1.358       .  S
C884        C885   1.409       .  A
C885        C886   1.403       .  A
C885        F888   1.357       .  S
C886        F890   1.358       .  S
C893        C894   1.406       .  A
C893        C898   1.403       .  A
C893        F911   1.358       .  S
C894        C899   1.493       .  S
C894        C895   1.408       .  A
C895        C896   1.402       .  A
C895        F900   1.358       .  S
C896        C897   1.410       .  A
C896        F912   1.358       .  S
C897        C898   1.411       .  A
C898        F901   1.358       .  S
C899        C902   1.404       .  A
C899        C906   1.410       .  A
C902        C903   1.399       .  A
C902        F907   1.358       .  S
C903        C904   1.413       .  A
C903        F909   1.358       .  S
C904        C905   1.408       .  A
C905        C906   1.406       .  A
C905        F908   1.357       .  S
C906        F910   1.357       .  S
C913        C914   1.408       .  A
C913        C918   1.407       .  A
C913        F931   1.357       .  S
C914        C919   1.492   1_455  S
C914        C915   1.403       .  A
C915        C916   1.402       .  A
C915        F920   1.358   1_455  S
C916        C917   1.415       .  A
C916        F932   1.358       .  S
C917        C918   1.410       .  A
C918        F921   1.357       .  S
C919        C922   1.406       .  A
C919        C926   1.406       .  A
C922        C923   1.405       .  A
C922        F927   1.358   1_655  S
C923        C924   1.413       .  A
C923        F929   1.358       .  S
C924        C925   1.410       .  A
C925        C926   1.403       .  A
C925        F928   1.358       .  S
C926        F930   1.358       .  S
C933        C934   1.401   1_655  A
C933        C938   1.392       .  A
C933        F951   1.358       .  S
C934        C939   1.467       .  S
C934        C935   1.401       .  A
C935        C936   1.397   1_455  A
C935        F940   1.358       .  S
C936        C937   1.409       .  A
C936        F952   1.358       .  S
C937        C938   1.408       .  A
C938        F941   1.358       .  S
C939        C942   1.401       .  A
C939        C946   1.401       .  A
C942        C943   1.395       .  A
C942        F947   1.358       .  S
C943        C944   1.411       .  A
C943        F949   1.358       .  S
C944        C945   1.410       .  A
C945        C946   1.395       .  A
C945        F948   1.358       .  S
C946        F950   1.358       .  S
C953        C954   1.407       .  A
C953        C958   1.403       .  A
C953        F971   1.358       .  S
C954        C959   1.496       .  S
C954        C955   1.408       .  A
C955        C956   1.405       .  A
C955        F960   1.358       .  S
C956        C957   1.413       .  A
C956        F972   1.358       .  S
C957        C958   1.412       .  A
C958        F961   1.357       .  S
C959        C962   1.410       .  A
C959        C966   1.406       .  A
C962        C963   1.405       .  A
C962        F967   1.358       .  S
C963        C964   1.409       .  A
C963        F969   1.358       .  S
C964        C965   1.412       .  A
C965        C966   1.402       .  A
C965        F968   1.358       .  S
C966        F970   1.358       .  S
C973        C974   1.403       .  A
C973        C978   1.396       .  A
C973        F991   1.358       .  S
C974        C979   1.475       .  S
C974        C975   1.404       .  A
C975        C976   1.396       .  A
C975        F980   1.358       .  S
C976        C977   1.409       .  A
C976        F992   1.358       .  S
C977        C978   1.409       .  A
C978        F981   1.358       .  S
C979        C982   1.404       .  A
C979        C986   1.403       .  A
C982        C983   1.395   1_545  A
C982        F987   1.358       .  S
C983        C984   1.409       .  A
C983        F989   1.358       .  S
C984        C985   1.409       .  A
C985        C986   1.397   1_565  A
C985        F988   1.358       .  S
C986        F990   1.358       .  S
C993        C994   1.402       .  A
C993        C998   1.400       .  A
C993       F1011   1.358   1_545  S
C994        C995   1.409       .  A
C995        C996   1.407       .  A
C995       F1000   1.358   1_556  S
C996        C997   1.410       .  A
C996       F1012   1.357       .  S
C997        C998   1.414       .  A
C998       F1001   1.358       .  S
C999       C1002   1.405       .  A
C999       C1006   1.408       .  A
C1002      C1003   1.399       .  A
C1003      C1004   1.413       .  A
C1003      F1009   1.358       .  S
C1004      C1005   1.410       .  A
C1005      C1006   1.405       .  A
C1005      F1008   1.357       .  S
C1006      F1010   1.357       .  S
C1013      C1014   1.404       .  A
C1013      C1018   1.400       .  A
C1013      F1031   1.358   1_545  S
C1014      C1019   1.490   1_545  S
C1014      C1015   1.407       .  A
C1015      C1016   1.406       .  A
C1015      F1020   1.358       .  S
C1016      C1017   1.412       .  A
C1016      F1032   1.357       .  S
C1017      C1018   1.412       .  A
C1018      F1021   1.358       .  S
C1019      C1022   1.403       .  A
C1019      C1026   1.408       .  A
C1022      C1023   1.402       .  A
C1022      F1027   1.358   1_565  S
C1023      C1024   1.414       .  A
C1023      F1029   1.358       .  S
C1024      C1025   1.410       .  A
C1025      C1026   1.404       .  A
C1025      F1028   1.358       .  S
C1026      F1030   1.358       .  S
C1033      C1034   1.403       .  A
C1033      C1038   1.392       .  A
C1033      F1051   1.358       .  S
C1035      F1040   1.358       .  S
C1036      C1037   1.409       .  A
C1036      F1052   1.358       .  S
C1037      C1038   1.408       .  A
C1038      F1041   1.358       .  S
C1039      C1042   1.403       .  A
C1039      C1046   1.402   1_565  A
C1042      C1043   1.400   1_565  A
C1042      F1047   1.358       .  S
C1043      C1044   1.411       .  A
C1043      F1049   1.358       .  S
C1044      C1045   1.409       .  A
C1045      C1046   1.391       .  A
C1045      F1048   1.358       .  S
C1046      F1050   1.358   1_545  S
C1053      C1054   1.405       .  A
C1053      C1058   1.401       .  A
C1053      F1071   1.358       .  S
C1054      C1059   1.481       .  S
C1054      C1055   1.402       .  A
C1055      C1056   1.397       .  A
C1055      F1060   1.358       .  S
C1056      C1057   1.412       .  A
C1056      F1072   1.358       .  S
C1057      C1058   1.410       .  A
C1058      F1061   1.358       .  S
C1059      C1062   1.402       .  A
C1059      C1066   1.405       .  A
C1062      C1063   1.397       .  A
C1062      F1067   1.359       .  S
C1063      C1064   1.413       .  A
C1063      F1069   1.358       .  S
C1064      C1065   1.410       .  A
C1065      C1066   1.402       .  A
C1065      F1068   1.357       .  S
C1066      F1070   1.358       .  S
C1073      C1074   1.405       .  A
C1073      C1078   1.399       .  A
C1073      F1091   1.358       .  S
C1074      C1079   1.488       .  S
C1074      C1075   1.406       .  A
C1075      C1076   1.403       .  A
C1075      F1080   1.358       .  S
C1076      C1077   1.410       .  A
C1076      F1092   1.357       .  S
C1077      C1078   1.411       .  A
C1078      F1081   1.358       .  S
C1079      C1082   1.403       .  A
C1079      C1086   1.407       .  A
C1082      C1083   1.401       .  A
C1082      F1087   1.358       .  S
C1083      C1084   1.413       .  A
C1083      F1089   1.358       .  S
C1084      C1085   1.410       .  A
C1085      C1086   1.402       .  A
C1085      F1088   1.357       .  S
C1086      F1090   1.358       .  S
C1093      C1094   1.401       .  A
C1093      C1098   1.397       .  A
C1093      F1111   1.358       .  S
C1094      C1099   1.468       .  S
C1094      C1095   1.401       .  A
C1095      C1096   1.394       .  A
C1095      F1100   1.358       .  S
C1096      C1097   1.409       .  A
C1097      C1098   1.409       .  A
C1098      F1101   1.358       .  S
C1099      C1102   1.401       .  A
C1099      C1106   1.400       .  A
C1102      C1103   1.397       .  A
C1102      F1107   1.358       .  S
C1103      C1104   1.410       .  A
C1103      F1109   1.358       .  S
C1104      C1105   1.411       .  A
C1105      C1106   1.394       .  A
C1105      F1108   1.358       .  S
C1106      F1110   1.358       .  S
C1113      C1114   1.405       .  A
C1113      C1118   1.403       .  A
C1113      F1131   1.358       .  S
C1114      C1119   1.491       .  S
C1114      C1115   1.406       .  A
C1115      C1116   1.405       .  A
C1115      F1120   1.358       .  S
C1116      C1117   1.412       .  A
C1116      F1132   1.358       .  S
C1117      C1118   1.411       .  A
C1118      F1121   1.358       .  S
C1119      C1122   1.408       .  A
C1119      C1126   1.402       .  A
C1123      C1124   1.409       .  A
C1123      F1129   1.357       .  S
C1125      C1126   1.402       .  A
C1125      F1128   1.358       .  S
C1126      F1130   1.358       .  S
C1133      C1134   1.404       .  A
C1133      C1138   1.404       .  A
C1133      F1151   1.358       .  S
C1134      C1139   1.492       .  S
C1134      C1135   1.409       .  A
C1135      C1136   1.404       .  A
C1135      F1140   1.358       .  S
C1136      C1137   1.408       .  A
C1136      F1152   1.357       .  S
C1137      C1138   1.415       .  A
C1138      F1141   1.358       .  S
C1139      C1142   1.403       .  A
C1139      C1146   1.409       .  A
C1142      C1143   1.397       .  A
C1142      F1147   1.358       .  S
C1143      C1144   1.411       .  A
C1143      F1149   1.358       .  S
C1144      C1145   1.412       .  A
C1145      C1146   1.409       .  A
C1145      F1148   1.358       .  S
C1146      F1150   1.358       .  S
C1153      C1154   1.403       .  A
C1153      C1158   1.398       .  A
C1153      F1171   1.358       .  S
C1154      C1159   1.473       .  S
C1154      C1155   1.402       .  A
C1155      C1156   1.396       .  A
C1155      F1160   1.358       .  S
C1156      C1157   1.408       .  A
C1156      F1172   1.358       .  S
C1157      C1158   1.409       .  A
C1158      F1161   1.358       .  S
C1159      C1162   1.401       .  A
C1159      C1166   1.403       .  A
C1162      C1163   1.400       .  A
C1162      F1167   1.358       .  S
C1163      C1164   1.412       .  A
C1163      F1169   1.358       .  S
C1164      C1165   1.409       .  A
C1165      C1166   1.393       .  A
C1165      F1168   1.358       .  S
C1166      F1170   1.358       .  S
C1173      C1174   1.403       .  A
C1173      C1178   1.401       .  A
C1173      F1191   1.358   1_556  S
C1174      C1179   1.481       .  S
C1174      C1175   1.405       .  A
C1175      C1176   1.399       .  A
C1175      F1180   1.358       .  S
C1176      C1177   1.409       .  A
C1176      F1192   1.358       .  S
C1177      C1178   1.412       .  A
C1178      F1181   1.358   1_556  S
C1179      C1182   1.405       .  A
C1179      C1186   1.402       .  A
C1182      C1183   1.405       .  A
C1182      F1187   1.358       .  S
C1183      C1184   1.412       .  A
C1184      C1185   1.411       .  A
C1185      C1186   1.396       .  A
C1185      F1188   1.358       .  S
C1186      F1190   1.358       .  S
C1193      C1194   1.405       .  A
C1193      C1198   1.402       .  A
C1193      F1211   1.358   1_655  S
C1194      C1199   1.493       .  S
C1194      C1195   1.408       .  A
C1195      C1196   1.405       .  A
C1195      F1200   1.358       .  S
C1196      C1197   1.410       .  A
C1196      F1212   1.357       .  S
C1197      C1198   1.414       .  A
C1198      F1201   1.358       .  S
C1199      C1202   1.408   1_655  A
C1199      C1206   1.405       .  A
C1202      C1203   1.405       .  A
C1202      F1207   1.358       .  S
C1203      C1204   1.410       .  A
C1203      F1209   1.357       .  S
C1204      C1205   1.413       .  A
C1205      C1206   1.403   1_455  A
C1205      F1208   1.358       .  S
C1206      F1210   1.358       .  S
C1213      C1214   1.401       .  A
C1213      C1218   1.394   1_655  A
C1213      F1231   1.358       .  S
C1214      C1219   1.462       .  S
C1214      C1215   1.400   1_655  A
C1215      C1216   1.394       .  A
C1215      F1220   1.358       .  S
C1216      C1217   1.408       .  A
C1216      F1232   1.358       .  S
C1217      C1218   1.406       .  A
C1218      F1221   1.358   1_455  S
C1219      C1222   1.399       .  A
C1219      C1226   1.399       .  A
C1222      C1223   1.396       .  A
C1222      F1227   1.358       .  S
C1223      C1224   1.411       .  A
C1223      F1229   1.358       .  S
C1224      C1225   1.410       .  A
C1225      C1226   1.393       .  A
C1225      F1228   1.358       .  S
C1226      F1230   1.358       .  S
C1233      C1234   1.402       .  A
C1233      C1238   1.398       .  A
C1233      F1251   1.358       .  S
C1234      C1239   1.480       .  S
C1234      C1235   1.404       .  A
C1235      C1236   1.400       .  A
C1235      F1240   1.358       .  S
C1236      C1237   1.410       .  A
C1236      F1252   1.357       .  S
C1237      C1238   1.413       .  A
C1238      F1241   1.358       .  S
C1239      C1242   1.406       .  A
C1239      C1246   1.401       .  A
C1242      C1243   1.403       .  A
C1242      F1247   1.358       .  S
C1243      C1244   1.410       .  A
C1243      F1249   1.357       .  S
C1244      C1245   1.411       .  A
C1245      C1246   1.396       .  A
C1245      F1248   1.358       .  S
C1246      F1250   1.358       .  S
C1253      C1254   1.409       .  A
C1253      C1258   1.405       .  A
C1253      F1271   1.358       .  S
C1254      C1259   1.495       .  S
C1254      C1255   1.406       .  A
C1255      C1256   1.403       .  A
C1255      F1260   1.358       .  S
C1256      C1257   1.410       .  A
C1256      F1272   1.357       .  S
C1257      C1258   1.410       .  A
C1258      F1261   1.358       .  S
C1259      C1262   1.410       .  A
C1259      C1266   1.404       .  A
C1262      C1263   1.407       .  A
C1262      F1267   1.357       .  S
C1263      C1264   1.409       .  A
C1263      F1269   1.357       .  S
C1264      C1265   1.415       .  A
C1265      C1266   1.400       .  A
C1265      F1268   1.358       .  S
C1266      F1270   1.358       .  S
