geometry optimzed in LAMMPS
_audit_creation_date              2020-12-01 
_audit_creation_method            'lammps2cif' 
_symmetry_space_group_name_H-M    'P1' 
_symmetry_Int_Tables_number       1 
_symmetry_cell_setting            triclinic 
loop_ 
_symmetry_equiv_pos_as_xyz 
  x,y,z 
_cell_length_a                    34.15956217 
_cell_length_b                    34.06947990930313 
_cell_length_c                    44.41936701287916 
_cell_angle_alpha                 89.57224833753725 
_cell_angle_beta                  90.35141272607329 
_cell_angle_gamma                 120.23821015473686 
loop_ 
_atom_site_label 
_atom_site_type_symbol 
_atom_site_fract_x 
_atom_site_fract_y 
_atom_site_fract_z 
_atom_site_charge 
O1          O  0.27466351  0.30995266  0.40537720    -0.82200
C2          C  0.33917186  0.35262237  0.02319249     0.97100
O3          O  0.36105818  0.34909932  0.00117799    -0.71300
O4          O  0.32593344  0.28089465  0.47054097    -0.74900
Al5        Al  0.35094616  0.34217559  0.45813649     1.49000
C6          C  0.29063349  0.24614925  0.46158444     0.92400
O7          O  0.21555311  0.28520962  0.48033331    -0.81100
O8          O  0.28396222  0.40864320  0.44212397    -0.74700
Al9        Al  0.24862183  0.30004702  0.44352604     1.90100
O10         O  0.23549460  0.35530851  0.49084254    -0.73800
O11         O  0.36072463  0.43529238  0.47333410    -0.73600
O12         O  0.30985442  0.36453326  0.01916027    -0.79300
O13         O  0.38624352  0.40273459  0.44442007    -0.77500
O14         O  0.29955559  0.34336177  0.46030240    -1.13600
O15         O  0.34422107  0.32624550  0.41628408    -0.72800
C16         C  0.31288712  0.31696911  0.39742330     0.97900
C17         C  0.20728956  0.31322122  0.49304998     0.94300
Al18       Al  0.29843561  0.38906285  0.47906001     1.55600
O19         O  0.25874584  0.25022574  0.45058668    -0.77400
C20         C  0.39182037  0.43794754  0.45687792     0.98500
C21         C  0.24952357  0.38277821  0.42635708     0.93300
O22         O  0.22773674  0.34031201  0.43091301    -0.82800
O23         O  0.06164772  0.32028853  0.34669864    -0.82200
C24         C  0.04273609  0.36055246  0.22603496     0.97100
O25         O  0.01432354  0.35196304  0.24696787    -0.71300
O26         O  0.97840921  0.27843726  0.28062449    -0.74900
Al27       Al  0.01372830  0.34138638  0.28958918     1.49000
C28         C  0.97806617  0.24669683  0.29531836     0.92400
O29         O  0.08950129  0.28143992  0.27407806    -0.81100
O30         O  0.15023524  0.40893595  0.30545123    -0.74700
Al31       Al  0.07479881  0.30267791  0.30972351     1.90100
O32         O  0.13971244  0.34970448  0.25842425    -0.73800
O33         O  0.10075732  0.43528006  0.27423797    -0.73600
O34         O  0.08291495  0.37087532  0.23225046    -0.79300
O35         O  0.03718881  0.40327153  0.29873948    -0.77500
O36         O  0.06714701  0.34380680  0.28937520    -1.13600
O37         O  0.00535063  0.33066367  0.33240013    -0.72800
C38         C  0.02891340  0.32619260  0.35286194     0.97900
C39         C  0.12443243  0.30710971  0.25869565     0.94300
Al40       Al  0.11441786  0.38749141  0.26931403     1.55600
O41         O  0.01413102  0.25330726  0.30754796    -0.77400
C42         C  0.06978202  0.43808521  0.28742423     0.98500
C43         C  0.15887844  0.38396639  0.32204880     0.93300
O44         O  0.13729197  0.34150708  0.31894231    -0.82800
O45         O  0.32224012  0.03919364  0.32426847    -0.82200
C46         C  0.36997991  0.02410580  0.44296255     0.97100
O47         O  0.36496046  0.99686456  0.42186809    -0.71300
O48         O  0.28971227  0.95999206  0.38998272    -0.74900
Al49       Al  0.35177132  0.99588323  0.37931155     1.49000
C50         C  0.25593049  0.96158435  0.38017847     0.92400
O51         O  0.29595382  0.07664002  0.39752882    -0.81100
O52         O  0.42085955  0.13108562  0.36379379    -0.74700
Al53       Al  0.31207768  0.05743067  0.36173166     1.90100
O54         O  0.36493663  0.12560523  0.41089582    -0.73800
O55         O  0.44517047  0.08036415  0.39572933    -0.73600
O56         O  0.38023948  0.06462600  0.43727251    -0.79300
O57         O  0.41314767  0.02093786  0.36753631    -0.77500
O58         O  0.35388276  0.04927497  0.38036671    -1.13600
O59         O  0.33748079  0.98587318  0.33701622    -0.72800
C60         C  0.32787901  0.00668537  0.31724276     0.97900
C61         C  0.32288494  0.11134112  0.41234048     0.94300
Al62       Al  0.39881683  0.09624742  0.40016330     1.55600
O63         O  0.26142351  0.99800375  0.36879380    -0.77400
C64         C  0.44835724  0.05192887  0.37957311     0.98500
C65         C  0.39673629  0.13906587  0.34587380     0.93300
O66         O  0.35403701  0.11857553  0.34869801    -0.82800
O67         O  0.33114820  0.26377163  0.26481289    -0.82200
C68         C  0.37437094  0.31994137  0.14538356     0.97100
O69         O  0.36738192  0.34199159  0.16552224    -0.71300
O70         O  0.29176960  0.30226909  0.19607887    -0.74900
Al71       Al  0.35361250  0.33175875  0.20782292     1.49000
C72         C  0.25955474  0.27095802  0.21045806     0.92400
O73         O  0.29854679  0.19556205  0.19354381    -0.81100
O74         O  0.42468463  0.26908434  0.22712782    -0.74700
Al75       Al  0.31673433  0.23262304  0.22865964     1.90100
O76         O  0.36784389  0.21492850  0.18065368    -0.73800
O77         O  0.44769251  0.34267401  0.19336791    -0.73600
O78         O  0.38438466  0.28993495  0.15196929    -0.79300
O79         O  0.41441021  0.37076597  0.21966264    -0.77500
O80         O  0.35740976  0.28156904  0.20863440    -1.13600
O81         O  0.33868324  0.32904849  0.25011726    -0.72800
C82         C  0.33387116  0.30111956  0.27080270     0.97900
C83         C  0.32559079  0.18658473  0.18007724     0.94300
Al84       Al  0.40247282  0.27937803  0.18987368     1.55600
O85         O  0.26584997  0.24173202  0.22372283    -0.77400
C86         C  0.44957440  0.37544178  0.20761453     0.98500
C87         C  0.40047562  0.23629922  0.24461305     0.93300
O88         O  0.35807296  0.21295382  0.24083423    -0.82800
O89         O  0.68088101  0.72276278  0.01189290    -0.82200
C90         C  0.64518233  0.66003196  0.39430734     0.97100
O91         O  0.66791146  0.65207299  0.41365114    -0.71300
O92         O  0.72440920  0.67380952  0.46034695    -0.74900
Al93       Al  0.66102433  0.64926418  0.45604301     1.49000
C94         C  0.75875304  0.71255634  0.45754737     0.92400
O95         O  0.71375717  0.79374551  0.44394960    -0.81100
O96         O  0.60287306  0.73206257  0.47099505    -0.74700
Al97       Al  0.70588620  0.74999388  0.47392480     1.90100
O98         O  0.65165843  0.75990018  0.41786532    -0.73800
O99         O  0.56688724  0.64897210  0.45374878    -0.73600
O100        O  0.61956771  0.67541276  0.40174929    -0.79300
O101        O  0.59816988  0.60783335  0.45181423    -0.77500
O102        O  0.66046888  0.70145973  0.45571208    -1.13600
O103        O  0.66570688  0.65376630  0.99942415    -0.72800
C104        C  0.67334242  0.68360033  0.01906280     0.97900
C105        C  0.68982969  0.79411313  0.42242502     0.94300
Al106      Al  0.61460587  0.70401075  0.43766451     1.55600
O107        O  0.75402048  0.74666626  0.45469864    -0.77400
C108        C  0.56304805  0.61055062  0.45350102     0.98500
C109        C  0.62616065  0.75158479  0.49404979     0.93300
O110        O  0.65482634  0.77436538  0.98539624    -0.82800
O111        O  0.95114733  0.26565205  0.48850056    -0.82200
C112        C  0.97451328  0.33748745  0.10365431     0.97100
O113        O  0.99991649  0.35813819  0.08124600    -0.71300
O114        O  0.03397143  0.31872340  0.04845583    -0.74900
Al115      Al  0.99671373  0.34372233  0.03885073     1.49000
C116        C  0.03316931  0.28476258  0.03699944     0.92400
O117        O  0.92417374  0.20892318  0.06225757    -0.81100
O118        O  0.86183845  0.27390703  0.02930835    -0.74700
Al119      Al  0.93539731  0.24128228  0.02508157     1.90100
O120        O  0.87396754  0.22667184  0.07684835    -0.73800
O121        O  0.91314315  0.35020462  0.05896472    -0.73600
O122        O  0.93424350  0.30538246  0.10007176    -0.79300
O123        O  0.96984948  0.37896751  0.02806366    -0.77500
O124        O  0.94457918  0.29181815  0.04300726    -1.13600
O125        O  0.00598888  0.33511112  0.49770742    -0.72800
C126        C  0.98280267  0.30318935  0.47928560     0.97900
C127        C  0.89015834  0.20046357  0.07813436     0.94300
Al128      Al  0.89945806  0.28924101  0.06451617     1.55600
O129        O  0.99651570  0.25346955  0.02636198    -0.77400
C130        C  0.93934848  0.38180350  0.04170779     0.98500
C131        C  0.85215673  0.23947157  0.01350014     0.93300
O132        O  0.87221368  0.21728642  0.01768352    -0.82800
O133        O  0.72086677  0.02155948  0.43275707    -0.82200
C134        C  0.67458530  0.02306884  0.31501422     0.97100
O135        O  0.66592929  0.99364381  0.33534339    -0.71300
O136        O  0.68500530  0.96161313  0.38375761    -0.74900
Al137      Al  0.66058822  0.99996093  0.37714219     1.49000
C138        C  0.72381623  0.96615928  0.38236465     0.92400
O139        O  0.80569660  0.09371284  0.37233572    -0.81100
O140        O  0.74794461  0.14438200  0.38859757    -0.74700
Al141      Al  0.75872260  0.05691639  0.40000722     1.90100
O142        O  0.77393891  0.11507705  0.33857906    -0.73800
O143        O  0.66270271  0.09555386  0.37139401    -0.73600
O144        O  0.68968899  0.06459749  0.32137079    -0.79300
O145        O  0.62087056  0.02239031  0.37015924    -0.77500
O146        O  0.71282374  0.05293244  0.37791413    -1.13600
O147        O  0.65120350  0.00222874  0.41935331    -0.72800
C148        C  0.67960803  0.00616820  0.43925889     0.97900
C149        C  0.80816536  0.11390656  0.34800724     0.94300
Al150      Al  0.71808025  0.10058372  0.35687696     1.55600
O151        O  0.75810062  0.00542535  0.38208479    -0.77400
C152        C  0.62401063  0.06058756  0.37157129     0.98500
C153        C  0.76325107  0.14155011  0.41400823     0.93300
O154        O  0.76621527  0.10742877  0.42121867    -0.82800
O155        O  0.69671017  0.96346923  0.07355404    -0.82200
C156        C  0.65263444  0.96856147  0.18991017     0.97100
O157        O  0.67278030  0.99748570  0.16906989    -0.71300
O158        O  0.72082048  0.02897375  0.11854427    -0.74900
Al159      Al  0.65893425  0.98847296  0.12737050     1.49000
C160        C  0.75617697  0.02655154  0.12028372     0.92400
O161        O  0.71639076  0.90158816  0.13878401    -0.81100
O162        O  0.60333024  0.84562269  0.11765790    -0.74700
Al163      Al  0.70343672  0.93351588  0.10819742     1.90100
O164        O  0.65773807  0.87461491  0.16822140    -0.73800
O165        O  0.56721223  0.89303814  0.13358661    -0.73600
O166        O  0.62542424  0.92674071  0.18401027    -0.79300
O167        O  0.59698021  0.96554063  0.13567477    -0.77500
O168        O  0.65999013  0.93658794  0.12840388    -1.13600
O169        O  0.64470546  0.98116931  0.08534789    -0.72800
C170        C  0.66746421  0.97426132  0.06576427     0.97900
C171        C  0.69546593  0.87890089  0.16173107     0.94300
Al172      Al  0.61730855  0.88926698  0.14912867     1.55600
O173        O  0.75300711  0.98845515  0.12406096    -0.77400
C174        C  0.56236772  0.92701282  0.13365040     0.98500
C175        C  0.62418988  0.84709192  0.09393269     0.93300
O176        O  0.66296270  0.87984837  0.08844547    -0.82800
O177        O  0.06392218  0.71953600  0.24116443    -0.82200
C178        C  0.04194508  0.65629805  0.36036096     0.97100
O179        O  0.01565591  0.63487202  0.33858888    -0.71300
O180        O  0.97940480  0.67430128  0.30708680    -0.74900
Al181      Al  0.01538756  0.64828514  0.29644084     1.49000
C182        C  0.97846476  0.70553088  0.29248322     0.92400
O183        O  0.08910916  0.78395376  0.31471181    -0.81100
O184        O  0.15090014  0.71878196  0.28334220    -0.74700
Al185      Al  0.07577542  0.74922478  0.27850747     1.90100
O186        O  0.13975470  0.76702430  0.33044797    -0.73800
O187        O  0.10076613  0.64226950  0.31382309    -0.73600
O188        O  0.08168935  0.68864493  0.35554876    -0.79300
O189        O  0.04141236  0.61311348  0.28494732    -0.77500
O190        O  0.06805051  0.70017427  0.29821022    -1.13600
O191        O  0.00653046  0.65322722  0.25399829    -0.72800
C192        C  0.03084444  0.68131030  0.23384134     0.97900
C193        C  0.12345435  0.79328910  0.33076319     0.94300
Al194      Al  0.11453066  0.70391146  0.31906637     1.55600
O195        O  0.01444374  0.73600497  0.28047521    -0.77400
C196        C  0.07310576  0.61034968  0.29731291     0.98500
C197        C  0.15995464  0.75252352  0.26667648     0.93300
O198        O  0.13890939  0.77384910  0.26984872    -0.82800
O199        O  0.27527773  0.92864660  0.18331191    -0.82200
C200        C  0.34252546  0.95325997  0.06542836     0.97100
O201        O  0.36268867  0.97998124  0.08726766    -0.71300
O202        O  0.32282230  0.01429575  0.11876626    -0.74900
Al203      Al  0.34918412  0.97880724  0.12952545     1.49000
C204        C  0.29070784  0.01445969  0.13213801     0.92400
O205        O  0.21482869  0.90322615  0.10793949    -0.81100
O206        O  0.28198214  0.84400855  0.14332465    -0.74700
Al207      Al  0.24780340  0.91668834  0.14520700     1.90100
O208        O  0.23329604  0.85286382  0.09473899    -0.73800
O209        O  0.35827255  0.89523112  0.11215290    -0.73600
O210        O  0.31142151  0.91259911  0.06993716    -0.79300
O211        O  0.38544483  0.95400088  0.14116133    -0.77500
O212        O  0.29815644  0.92574676  0.12698881    -1.13600
O213        O  0.34324006  0.98573622  0.17209613    -0.72800
C214        C  0.31326113  0.96128337  0.19126404     0.97900
C215        C  0.20723320  0.86916232  0.09222983     0.94300
Al216      Al  0.29624990  0.87971057  0.10678391     1.55600
O217        O  0.25954936  0.97784857  0.14309588    -0.77400
C218        C  0.39033802  0.92456134  0.12782361     0.98500
C219        C  0.24810885  0.83511709  0.15955458     0.93300
O220        O  0.22473155  0.85356068  0.15391644    -0.82800
O221        O  0.73681658  0.68036716  0.15510503    -0.82200
C222        C  0.67502328  0.63043465  0.27104704     0.97100
O223        O  0.65200481  0.63452895  0.24977493    -0.71300
O224        O  0.68510439  0.70536255  0.21300229    -0.74900
Al225      Al  0.66105752  0.64253799  0.20668803     1.49000
C226        C  0.72308344  0.74036062  0.20922220     0.92400
O227        O  0.79997343  0.69996454  0.22814167    -0.81100
O228        O  0.72707108  0.57642121  0.19308233    -0.74700
Al229      Al  0.76408012  0.68644601  0.19256211     1.90100
O230        O  0.77960258  0.63041246  0.23957240    -0.73800
O231        O  0.65425888  0.55143584  0.22729813    -0.73600
O232        O  0.70446813  0.61885345  0.26624233    -0.79300
O233        O  0.62407890  0.57989019  0.19822371    -0.77500
O234        O  0.71344376  0.64291369  0.20955951    -1.13600
O235        O  0.66416115  0.65094582  0.16386470    -0.72800
C236        C  0.69730511  0.66695640  0.14589490     0.97900
C237        C  0.80832826  0.67211438  0.24106913     0.94300
Al238      Al  0.71603774  0.59843158  0.22969050     1.55600
O239        O  0.75679313  0.73662937  0.20261042    -0.77400
C240        C  0.62155662  0.54630716  0.21161898     0.98500
C241        C  0.75807661  0.60146269  0.17465957     0.93300
O242        O  0.78075787  0.64429500  0.17761357    -0.82800
O243        O  0.95224563  0.66898527  0.10142438    -0.82200
C244        C  0.97042947  0.62536893  0.48205755     0.97100
O245        O  0.99623846  0.62847989  0.50383223    -0.71300
O246        O  0.03222341  0.70746811  0.03341180    -0.74900
Al247      Al  0.99615337  0.64526598  0.04419626     1.49000
C248        C  0.03388795  0.74108551  0.04629215     0.92400
O249        O  0.92220706  0.70919212  0.02885339    -0.81100
O250        O  0.86070419  0.57977380  0.05659698    -0.74700
Al251      Al  0.93803868  0.68677422  0.06412269     1.90100
O252        O  0.87217458  0.64198571  0.01230307    -0.73800
O253        O  0.91145836  0.55687561  0.02384717    -0.73600
O254        O  0.93197540  0.62095539  0.48710522    -0.79300
O255        O  0.96847338  0.58287130  0.05511640    -0.77500
O256        O  0.94435196  0.64573171  0.04331741    -1.13600
O257        O  0.00723858  0.65808219  0.08637907    -0.72800
C258        C  0.98518207  0.66316796  0.10721268     0.97900
C259        C  0.88802018  0.68440035  0.01261694     0.94300
Al260      Al  0.89776100  0.60465012  0.02143888     1.55600
O261        O  0.99946941  0.73610644  0.06003140    -0.77400
C262        C  0.93793510  0.55064456  0.04023487     0.98500
C263        C  0.85231262  0.60350929  0.07433209     0.93300
O264        O  0.87596946  0.64640315  0.07407378    -0.82800
C265        C  0.82454030  0.56915794  0.12426327    -0.06200
C266        C  0.81540239  0.58291371  0.09649124    -0.00300
C267        C  0.77809688  0.58987254  0.09382429    -0.08800
C268        C  0.75535479  0.58982644  0.12010245    -0.06200
C269        C  0.76880476  0.58240912  0.14848114    -0.00300
C270        C  0.80127343  0.56858222  0.15053131    -0.08700
C271        C  0.81329518  0.55682567  0.18079634     0.61600
H272        H  0.85312494  0.56370773  0.12586891     0.12300
H273        H  0.72992909  0.59991421  0.11894669     0.12300
C274        C  0.76488190  0.60069592  0.06354420     0.61900
F275        F  0.84200492  0.53963139  0.17774057    -0.23300
F276        F  0.77427932  0.52416097  0.19491512    -0.20600
F277        F  0.83424373  0.59517255  0.19864895    -0.20300
F278        F  0.76162213  0.56949175  0.04244554    -0.20400
F279        F  0.79720455  0.64381345  0.05426248    -0.20700
F280        F  0.72346785  0.59876306  0.06484159    -0.23400
C281        C  0.12814364  0.85079736  0.07897077    -0.06200
C282        C  0.16554130  0.84527784  0.07294805    -0.00300
C283        C  0.16095447  0.81477443  0.04966583    -0.08800
C284        C  0.11736052  0.78362467  0.03895420    -0.06200
C285        C  0.07868379  0.78426566  0.04883018    -0.00300
C286        C  0.08527467  0.82242703  0.06567580    -0.08700
C287        C  0.04850223  0.83469012  0.06882101     0.61600
H288        H  0.13203641  0.87666934  0.09471279     0.12300
H289        H  0.11325933  0.75686601  0.02397319     0.12300
C290        C  0.20147235  0.81537613  0.03537639     0.61900
F291        F  0.06750921  0.88112676  0.07237011    -0.23300
F292        F  0.02149717  0.81322030  0.09346819    -0.20600
F293        F  0.02184418  0.82246716  0.04317021    -0.20300
F294        F  0.21794924  0.79425762  0.05396940    -0.20400
F295        F  0.23489349  0.85984070  0.02999435    -0.20700
F296        F  0.19018998  0.79303487  0.00800218    -0.23400
C297        C  0.25346060  0.82993381  0.21430343    -0.06200
C298        C  0.23660180  0.80673997  0.18703172    -0.00300
C299        C  0.20055919  0.76126182  0.18753257    -0.08800
C300        C  0.17940127  0.74189122  0.21527463    -0.06200
C301        C  0.19342324  0.76701238  0.24210716    -0.00300
C302        C  0.23266055  0.81066488  0.24197406    -0.08700
C303        C  0.25049293  0.83956630  0.27004721     0.61600
H304        H  0.28109536  0.86481546  0.21377350     0.12300
H305        H  0.14932240  0.70846842  0.21576823     0.12300
C306        C  0.18407593  0.73421919  0.15865951     0.61900
F307        F  0.29739673  0.86327681  0.26990381    -0.23300
F308        F  0.23659271  0.81346972  0.29603600    -0.20600
F309        F  0.23531861  0.87028985  0.27060654    -0.20300
F310        F  0.14799099  0.69085130  0.16370019    -0.20400
F311        F  0.21908564  0.73065853  0.14609945    -0.20700
F312        F  0.17035734  0.75579296  0.13833278    -0.23400
C313        C  0.97757622  0.62393631  0.39595678    -0.06200
C314        C  0.02456458  0.64429250  0.39175099    -0.00300
C315        C  0.05289684  0.65327014  0.41735515    -0.08800
C316        C  0.03345798  0.64574902  0.44618772    -0.06200
C317        C  0.98673244  0.62828420  0.45048419    -0.00300
C318        C  0.95788092  0.61487274  0.42474298    -0.08700
C319        C  0.90656751  0.59096864  0.42702191     0.61600
H320        H  0.95610368  0.61628793  0.37629183     0.12300
H321        H  0.05531789  0.65480808  0.46574607     0.12300
C322        C  0.10329074  0.67015967  0.41470390     0.61900
F323        F  0.88566780  0.57510104  0.39939517    -0.23300
F324        F  0.89378567  0.62087431  0.43751485    -0.20600
F325        F  0.89101534  0.55397488  0.44624585    -0.20300
F326        F  0.12607475  0.71514551  0.40561709    -0.20400
F327        F  0.11033882  0.64407019  0.39410509    -0.20700
F328        F  0.12175956  0.66726680  0.44189625    -0.23400
C329        C  0.04907368  0.70536111  0.18068429    -0.06200
C330        C  0.02020995  0.67136407  0.20110225    -0.00300
C331        C  0.98211639  0.63125056  0.18952620    -0.08800
C332        C  0.97207110  0.62932111  0.15846767    -0.06200
C333        C  0.99964140  0.66489951  0.13881844    -0.00300
C334        C  0.03934445  0.70294011  0.14988580    -0.08700
C335        C  0.06947846  0.74253505  0.12955167     0.61600
H336        H  0.07900250  0.73515057  0.18908742     0.12300
H337        H  0.94211640  0.60027377  0.14928184     0.12300
C338        C  0.95205794  0.59057560  0.20931719     0.61900
F339        F  0.10519983  0.77760119  0.14493411    -0.23300
F340        F  0.04391342  0.75935145  0.11713349    -0.20600
F341        F  0.08703197  0.72833739  0.10692486    -0.20300
F342        F  0.92768645  0.60154477  0.22888351    -0.20400
F343        F  0.97824377  0.57725142  0.22541482    -0.20700
F344        F  0.92163335  0.55361645  0.19249280    -0.23400
C345        C  0.85175526  0.66357726  0.28338142    -0.06200
C346        C  0.85213009  0.68730867  0.25722171    -0.00300
C347        C  0.89440408  0.72174081  0.24576116    -0.08800
C348        C  0.93453709  0.72919316  0.25998732    -0.06200
C349        C  0.93443020  0.70327291  0.28492013    -0.00300
C350        C  0.89200709  0.67167121  0.29796889    -0.08700
C351        C  0.88849614  0.64635929  0.32705168     0.61600
H352        H  0.81937329  0.63731934  0.29194199     0.12300
H353        H  0.96673533  0.75388665  0.25033708     0.12300
C354        C  0.89778102  0.74850057  0.21736506     0.61900
F355        F  0.84526931  0.62630224  0.33904531    -0.23300
F356        F  0.91815147  0.67629114  0.34824878    -0.20600
F357        F  0.89853523  0.61243957  0.32187266    -0.20300
F358        F  0.87770295  0.77445558  0.22208569    -0.20400
F359        F  0.87649314  0.71897658  0.19372766    -0.20700
F360        F  0.94228033  0.77769572  0.20898661    -0.23400
C361        C  0.51622612  0.96407560  0.13565392    -0.06200
C362        C  0.51685422  0.92346504  0.13189793    -0.00300
C363        C  0.47518402  0.88283987  0.12593260    -0.08800
C364        C  0.43460232  0.88448436  0.12569513    -0.06200
C365        C  0.43435998  0.92529393  0.12979580    -0.00300
C366        C  0.47645720  0.96629162  0.13346676    -0.08700
C367        C  0.48074365  0.01300426  0.13322271     0.61600
H368        H  0.54782744  0.99510929  0.13988586     0.12300
H369        H  0.40249460  0.85369110  0.12199160     0.12300
C370        C  0.47307527  0.83817747  0.11908991     0.61900
F371        F  0.46198026  0.01887941  0.15895551    -0.23300
F372        F  0.45916320  0.01745715  0.10810293    -0.20600
F373        F  0.52546909  0.04782314  0.13215914    -0.20300
F374        F  0.48660671  0.82350572  0.14406324    -0.20400
F375        F  0.50100054  0.84389399  0.09499443    -0.20700
F376        F  0.42968712  0.80436500  0.11150380    -0.23400
C377        C  0.68377984  0.82509952  0.20362049    -0.06200
C378        C  0.71232139  0.85339489  0.18042842    -0.00300
C379        C  0.75306470  0.85285538  0.17476918    -0.08800
C380        C  0.75935387  0.81907938  0.18890185    -0.06200
C381        C  0.72633132  0.78580539  0.20793568    -0.00300
C382        C  0.69089978  0.79242886  0.21813145    -0.08700
C383        C  0.65917251  0.76547257  0.24366482     0.61600
H384        H  0.65427918  0.82714095  0.20998742     0.12300
H385        H  0.78799462  0.81560186  0.18253510     0.12300
C386        C  0.78908665  0.88594699  0.15315861     0.61900
F387        F  0.65558048  0.79495145  0.26321228    -0.23300
F388        F  0.67455811  0.74139101  0.26025229    -0.20600
F389        F  0.61669153  0.73574020  0.23211837    -0.20300
F390        F  0.80065899  0.92996616  0.16029380    -0.20400
F391        F  0.77317943  0.87645895  0.12388485    -0.20700
F392        F  0.82817687  0.88326568  0.15471378    -0.23400
C393        C  0.62171949  0.96464950  0.24083346    -0.06200
C394        C  0.65968074  0.98362481  0.22182867    -0.00300
C395        C  0.70284354  0.01546441  0.23383473    -0.08800
C396        C  0.70607727  0.02771484  0.26436742    -0.06200
C397        C  0.66800781  0.00892913  0.28312733    -0.00300
C398        C  0.62505716  0.97707964  0.27129761    -0.08700
C399        C  0.58267771  0.95813765  0.29041869     0.61600
H400        H  0.58903966  0.94048788  0.23140859     0.12300
H401        H  0.73857818  0.05203991  0.27398267     0.12300
C402        C  0.74549610  0.03602075  0.21484646     0.61900
F403        F  0.54388875  0.93058165  0.27397366    -0.23300
F404        F  0.57882579  0.99368521  0.30179160    -0.20600
F405        F  0.58506681  0.93262587  0.31393649    -0.20300
F406        F  0.74394047  0.06523626  0.19383490    -0.20400
F407        F  0.74895756  0.00207932  0.20034893    -0.20700
F408        F  0.78424157  0.06057001  0.23206113    -0.23400
C409        C  0.65176121  0.01651313  0.48852247    -0.06200
C410        C  0.66543006  0.99171766  0.47062558    -0.00300
C411        C  0.67066190  0.95676582  0.48382483    -0.08800
C412        C  0.66729096  0.94813465  0.01440230    -0.06200
C413        C  0.66097753  0.97769980  0.03294472    -0.00300
C414        C  0.65331145  0.01113032  0.01945948    -0.08700
C415        C  0.64123391  0.04059602  0.03810963     0.61600
H416        H  0.64701500  0.04247112  0.47777574     0.12300
H417        H  0.67085575  0.92124817  0.02484407     0.12300
C418        C  0.68271453  0.92713508  0.46526951     0.61900
F419        F  0.63526217  0.07073249  0.02035807    -0.23300
F420        F  0.67530493  0.06528058  0.05872954    -0.20600
F421        F  0.60106177  0.01344093  0.05321380    -0.20300
F422        F  0.72607775  0.95294258  0.45432715    -0.20400
F423        F  0.65267198  0.90836591  0.44150273    -0.20700
F424        F  0.68133244  0.89214476  0.48213864    -0.23400
C425        C  0.91987904  0.43590105  0.06466934    -0.06200
C426        C  0.93557735  0.42338667  0.03926032    -0.00300
C427        C  0.94776228  0.45112814  0.01301943    -0.08800
C428        C  0.94745056  0.49230116  0.01419163    -0.06200
C429        C  0.93473728  0.50588332  0.04033993    -0.00300
C430        C  0.91895501  0.47668918  0.06553173    -0.08700
C431        C  0.90044407  0.48847847  0.09281443     0.61600
H432        H  0.90926315  0.41396620  0.08427880     0.12300
H433        H  0.93897147  0.50266143  0.49614079     0.12300
C434        C  0.94024230  0.42447102  0.48455642     0.61900
F435        F  0.88291483  0.45370080  0.11390541    -0.23300
F436        F  0.86607721  0.49634501  0.08392760    -0.20600
F437        F  0.93455130  0.52713070  0.10635844    -0.20300
F438        F  0.90571511  0.37963392  0.48301532    -0.20400
F439        F  0.98139368  0.42668032  0.48050954    -0.20700
F440        F  0.93431992  0.44809310  0.46117216    -0.23400
C441        C  0.84456385  0.24175608  0.45986231    -0.06200
C442        C  0.82533278  0.22626448  0.48841179    -0.00300
C443        C  0.78033621  0.19012452  0.49085516    -0.08800
C444        C  0.75773907  0.16647543  0.46462440    -0.06200
C445        C  0.77931706  0.17813853  0.43646309    -0.00300
C446        C  0.82218476  0.21800910  0.43358515    -0.08700
C447        C  0.84557710  0.23310885  0.40329781     0.61600
H448        H  0.87909689  0.26987120  0.45857615     0.12300
H449        H  0.72478344  0.13596583  0.46633906     0.12300
C450        C  0.75584588  0.16105730  0.02120268     0.61900
F451        F  0.88677459  0.27318812  0.40542863    -0.23300
F452        F  0.81829049  0.24016629  0.38350456    -0.20600
F453        F  0.85346043  0.20011802  0.39183656    -0.20300
F454        F  0.77779281  0.18835972  0.04567452    -0.20400
F455        F  0.75562506  0.12055189  0.02462608    -0.20700
F456        F  0.71174951  0.15238701  0.02119535    -0.23400
C457        C  0.86406733  0.11822457  0.08367314    -0.06200
C458        C  0.86543603  0.15711274  0.09541644    -0.00300
C459        C  0.83802014  0.15219890  0.12063233    -0.08800
C460        C  0.80517983  0.10831958  0.12990018    -0.06200
C461        C  0.80016591  0.06923976  0.11593352    -0.00300
C462        C  0.83182413  0.07409786  0.09355644    -0.08700
C463        C  0.82944150  0.03321981  0.07836639     0.61600
H464        H  0.88593762  0.12238307  0.06490925     0.12300
H465        H  0.78096892  0.10446511  0.14689803     0.12300
C466        C  0.84183898  0.19268445  0.13732004     0.61900
F467        F  0.86444227  0.04572825  0.05808463    -0.23300
F468        F  0.78908455  0.00948426  0.06278772    -0.20600
F469        F  0.83242656  0.00519117  0.09979750    -0.20300
F470        F  0.81880881  0.21022904  0.12180105    -0.20400
F471        F  0.88691982  0.22577503  0.14045216    -0.20700
F472        F  0.82354268  0.18051411  0.16592694    -0.23400
C473        C  0.69472899  0.67578008  0.35080667    -0.06200
C474        C  0.65058347  0.65320111  0.36220772    -0.00300
C475        C  0.61375510  0.62503485  0.34307467    -0.08800
C476        C  0.62303105  0.61842288  0.31326480    -0.06200
C477        C  0.66751911  0.63978118  0.30223814    -0.00300
C478        C  0.70381823  0.67052620  0.32082779    -0.08700
C479        C  0.75176803  0.69873210  0.30895767     0.61600
H480        H  0.72219619  0.69803515  0.36566505     0.12300
H481        H  0.59565152  0.59614618  0.29837041     0.12300
C482        C  0.56519538  0.60147284  0.35418435     0.61900
F483        F  0.77975926  0.73217184  0.32906770    -0.23300
F484        F  0.75163197  0.71985439  0.28225428    -0.20600
F485        F  0.76969133  0.67102099  0.30411545    -0.20300
F486        F  0.55323584  0.63354469  0.36110243    -0.20400
F487        F  0.56093436  0.57592852  0.37957826    -0.20700
F488        F  0.53507165  0.57270836  0.33268228    -0.23400
C489        C  0.71487193  0.71123778  0.06588923    -0.06200
C490        C  0.67806152  0.67552433  0.05109582    -0.00300
C491        C  0.64706132  0.63624201  0.06739050    -0.08800
C492        C  0.65385638  0.63482379  0.09864650    -0.06200
C493        C  0.69082052  0.67096131  0.11340024    -0.00300
C494        C  0.72186037  0.71004372  0.09674009    -0.08700
C495        C  0.76116543  0.75158948  0.11129567     0.61600
H496        H  0.73849653  0.74064577  0.05282258     0.12300
H497        H  0.63083865  0.60518197  0.11173328     0.12300
C498        C  0.60701486  0.59659752  0.05206664     0.61900
F499        F  0.78091031  0.78846135  0.09182550    -0.23300
F500        F  0.79440002  0.74207622  0.12012601    -0.20600
F501        F  0.74568769  0.76420981  0.13591152    -0.20300
F502        F  0.62236924  0.57705241  0.03159968    -0.20400
F503        F  0.58120931  0.61156232  0.03719867    -0.20700
F504        F  0.57938226  0.56336052  0.07252135    -0.23400
C505        C  0.74724148  0.87531439  0.41108226    -0.06200
C506        C  0.70534647  0.83645528  0.40392217    -0.00300
C507        C  0.67803749  0.84073543  0.38121280    -0.08800
C508        C  0.68871565  0.88452534  0.37193931    -0.06200
C509        C  0.72644819  0.92380597  0.38324135    -0.00300
C510        C  0.75906622  0.91899862  0.40018998    -0.08700
C511        C  0.80572769  0.95918232  0.40680230     0.61600
H512        H  0.76994455  0.87174505  0.42648553     0.12300
H513        H  0.66547350  0.88855081  0.35729474     0.12300
C514        C  0.63675627  0.80029800  0.36730252     0.61900
F515        F  0.83371541  0.94561046  0.42022108    -0.23300
F516        F  0.80288330  0.98950805  0.42581836    -0.20600
F517        F  0.82570172  0.98096864  0.38009044    -0.20300
F518        F  0.60149657  0.78159980  0.38773410    -0.20400
F519        F  0.64758522  0.76801277  0.35855974    -0.20700
F520        F  0.62175180  0.81272795  0.34190407    -0.23400
C521        C  0.58385542  0.81536599  0.04592444    -0.06200
C522        C  0.60485267  0.81013028  0.07175871    -0.00300
C523        C  0.61736064  0.77649584  0.07239488    -0.08800
C524        C  0.61233227  0.75184135  0.04605250    -0.06200
C525        C  0.59705699  0.76130964  0.01904434    -0.00300
C526        C  0.57947828  0.79095514  0.01933977    -0.08700
C527        C  0.57216610  0.79996423  0.48781058     0.61600
H528        H  0.57428634  0.84123414  0.04595795     0.12300
H529        H  0.62480184  0.72833093  0.04561178     0.12300
C530        C  0.64077394  0.77052839  0.09972706     0.61900
F531        F  0.55712087  0.83068540  0.49034184    -0.23300
F532        F  0.53641962  0.75913809  0.47787088    -0.20600
F533        F  0.60621056  0.81635204  0.46653067    -0.20300
F534        F  0.61626153  0.76622347  0.12543614    -0.20400
F535        F  0.68376763  0.80795811  0.10253181    -0.20700
F536        F  0.64466979  0.73219629  0.09742010    -0.23400
C537        C  0.82267126  0.74393810  0.99049756    -0.06200
C538        C  0.80376317  0.71682429  0.46205755    -0.00300
C539        C  0.81180559  0.68238747  0.45182331    -0.08800
C540        C  0.84154022  0.67317739  0.46812675    -0.06200
C541        C  0.86365188  0.70276747  0.99449382    -0.00300
C542        C  0.85700717  0.73849436  0.00434108    -0.08700
C543        C  0.88414406  0.76931667  0.03017389     0.61600
H544        H  0.81455787  0.76826737  0.99976216     0.12300
H545        H  0.84403158  0.64387912  0.46192302     0.12300
C546        C  0.78777499  0.65308342  0.42475955     0.61900
F547        F  0.87567269  0.74421078  0.05639232    -0.23300
F548        F  0.87334589  0.80281517  0.03518547    -0.20600
F549        F  0.92983502  0.79062163  0.02349204    -0.20300
F550        F  0.76711694  0.67129816  0.40725595    -0.20400
F551        F  0.75545185  0.61013466  0.43435720    -0.20700
F552        F  0.81885785  0.64959373  0.40681775    -0.23400
C553        C  0.53403411  0.41909759  0.20758062    -0.06200
C554        C  0.49323453  0.41972119  0.20956267    -0.00300
C555        C  0.49534541  0.46251876  0.21151743    -0.08800
C556        C  0.53803529  0.50247384  0.21189331    -0.06200
C557        C  0.57861391  0.50171644  0.21042882    -0.00300
C558        C  0.57677814  0.45931660  0.20806674    -0.08700
C559        C  0.61949362  0.45639273  0.20516361     0.61600
H560        H  0.53220259  0.38652866  0.20584928     0.12300
H561        H  0.54016909  0.53516783  0.21382593     0.12300
C562        C  0.45324939  0.46696334  0.21257009     0.61900
F563        F  0.60978621  0.41259488  0.19903589    -0.23300
F564        F  0.64387177  0.46980057  0.23175861    -0.20600
F565        F  0.64585428  0.48420392  0.18190296    -0.20300
F566        F  0.43032172  0.44867601  0.23913414    -0.20400
F567        F  0.42533805  0.44476714  0.18835041    -0.20700
F568        F  0.46366789  0.51183765  0.21134750    -0.23400
C569        C  0.33056350  0.14140022  0.13810094    -0.06200
C570        C  0.30906507  0.14195324  0.16484509    -0.00300
C571        C  0.27655618  0.09990356  0.17798745    -0.08800
C572        C  0.26867240  0.05910967  0.16464314    -0.06200
C573        C  0.29275821  0.05848806  0.13920388    -0.00300
C574        C  0.32288704  0.10052820  0.12488582    -0.08700
C575        C  0.34748495  0.10285092  0.09601639     0.61600
H576        H  0.35504459  0.17365537  0.12815527     0.12300
H577        H  0.24557097  0.02713309  0.17544418     0.12300
C578        C  0.25255089  0.09760610  0.20721806     0.61900
F579        F  0.36564706  0.14505909  0.08230126    -0.23300
F580        F  0.31743220  0.07083442  0.07596553    -0.20600
F581        F  0.38264133  0.09486192  0.10208296    -0.20300
F582        F  0.22619756  0.11749583  0.20329088    -0.20400
F583        F  0.28416206  0.11984451  0.22970439    -0.20700
F584        F  0.22429266  0.05333745  0.21674419    -0.23400
C585        C  0.53290087  0.09330244  0.38665289    -0.06200
C586        C  0.49356362  0.05477095  0.37546344    -0.00300
C587        C  0.49855793  0.01967686  0.36196417    -0.08800
C588        C  0.54183212  0.02426738  0.36103499    -0.06200
C589        C  0.58088225  0.06221882  0.37254477    -0.00300
C590        C  0.57644678  0.09777095  0.38543105    -0.08700
C591        C  0.61693498  0.13957255  0.39868081     0.61600
H592        H  0.52930674  0.12013143  0.39672942     0.12300
H593        H  0.54537006  0.99722084  0.35137407     0.12300
C594        C  0.45893408  0.97672902  0.34884734     0.61900
F595        F  0.60456814  0.16829019  0.41205130    -0.23300
F596        F  0.64773223  0.16375143  0.37617406    -0.20600
F597        F  0.63748740  0.12666889  0.42042542    -0.20300
F598        F  0.43924762  0.98806377  0.32565201    -0.20400
F599        F  0.42733411  0.95308596  0.37106000    -0.20700
F600        F  0.47218074  0.94767209  0.33710263    -0.23400
C601        C  0.42251937  0.21501848  0.32410606    -0.06200
C602        C  0.41710893  0.17170254  0.32064547    -0.00300
C603        C  0.42010985  0.15709939  0.29134664    -0.08800
C604        C  0.42066197  0.18285836  0.26635803    -0.06200
C605        C  0.42007271  0.22329285  0.26974932    -0.00300
C606        C  0.42490275  0.24167805  0.29901062    -0.08700
C607        C  0.43090042  0.28807267  0.30518741     0.61600
H608        H  0.42160837  0.22680228  0.34656733     0.12300
H609        H  0.41792670  0.16936567  0.24389588     0.12300
C610        C  0.41993073  0.11354603  0.28470424     0.61900
F611        F  0.47184699  0.31432467  0.31975296    -0.23300
F612        F  0.39646480  0.28343933  0.32371883    -0.20600
F613        F  0.43100134  0.31088821  0.27934713    -0.20300
F614        F  0.38184749  0.08567130  0.26788640    -0.20400
F615        F  0.42047270  0.09062565  0.31033287    -0.20700
F616        F  0.45787182  0.12355034  0.26794470    -0.23400
C617        C  0.17247028  0.83617718  0.37428675    -0.06200
C618        C  0.14715553  0.83598446  0.34905521    -0.00300
C619        C  0.14906302  0.87738107  0.34076580    -0.08800
C620        C  0.18014040  0.91776097  0.35580267    -0.06200
C621        C  0.21083039  0.91864918  0.37743431    -0.00300
C622        C  0.20285419  0.87657684  0.38937288    -0.08700
C623        C  0.22620787  0.87312953  0.41754476     0.61600
H624        H  0.16933560  0.80443376  0.38193773     0.12300
H625        H  0.18351109  0.94974148  0.34871624     0.12300
C626        C  0.12142809  0.88018327  0.31476287     0.61900
F627        F  0.19610053  0.83598007  0.43459187    -0.23300
F628        F  0.24143412  0.91122168  0.43543647    -0.20600
F629        F  0.26234979  0.86782996  0.40964347    -0.20300
F630        F  0.07570876  0.85272518  0.32065325    -0.20400
F631        F  0.13236333  0.86648698  0.28844163    -0.20700
F632        F  0.12965686  0.92395112  0.31022362    -0.23400
C633        C  0.35589083  0.98529689  0.27234861    -0.06200
C634        C  0.32300663  0.99316816  0.28521700    -0.00300
C635        C  0.28757857  0.99059127  0.26684673    -0.08800
C636        C  0.28605625  0.97953994  0.23645649    -0.06200
C637        C  0.31951376  0.97313194  0.22342795    -0.00300
C638        C  0.35550186  0.97661248  0.24132642    -0.08700
C639        C  0.39374713  0.97261563  0.22760023     0.61600
H640        H  0.38316606  0.98835321  0.28648565     0.12300
H641        H  0.25913961  0.97718709  0.22214990     0.12300
C642        C  0.25119219  0.99929007  0.27889807     0.61900
F643        F  0.42370598  0.97380848  0.24921403    -0.23300
F644        F  0.41746334  0.00868207  0.20814090    -0.20600
F645        F  0.37665725  0.93225397  0.21199208    -0.20300
F646        F  0.26946159  0.04509256  0.28461243    -0.20400
F647        F  0.23349298  0.97466235  0.30497318    -0.20700
F648        F  0.21575376  0.98631413  0.25873822    -0.23400
C649        C  0.37708320  0.97665051  0.48312658    -0.06200
C650        C  0.36350227  0.00796436  0.47479679    -0.00300
C651        C  0.34205877  0.02123245  0.49657284    -0.08800
C652        C  0.35881283  0.01387418  0.02831680    -0.06200
C653        C  0.35407008  0.97116479  0.03417828    -0.00300
C654        C  0.35941175  0.94691286  0.01029130    -0.08700
C655        C  0.35975432  0.90299409  0.01576658     0.61600
H656        H  0.39247541  0.96598511  0.46623472     0.12300
H657        H  0.35538110  0.03216257  0.04696034     0.12300
C658        C  0.32262778  0.05148556  0.48863302     0.61900
F659        F  0.37298194  0.88934580  0.99038179    -0.23300
F660        F  0.31702258  0.86851621  0.02359784    -0.20600
F661        F  0.38984525  0.90907530  0.03871016    -0.20300
F662        F  0.29651736  0.05333226  0.51168550    -0.20400
F663        F  0.29525462  0.03495326  0.46338479    -0.20700
F664        F  0.35755027  0.09516087  0.48320606    -0.23400
C665        C  0.03488610  0.52831777  0.28531670    -0.06200
C666        C  0.07526413  0.56778003  0.29356743    -0.00300
C667        C  0.11500940  0.56478228  0.29802986    -0.08800
C668        C  0.11186916  0.52187176  0.29577242    -0.06200
C669        C  0.07083901  0.48229003  0.28894334    -0.00300
C670        C  0.03199522  0.48588483  0.28244678    -0.08700
C671        C  0.98785592  0.44567979  0.27133047     0.61600
H672        H  0.00480034  0.53066371  0.28150524     0.12300
H673        H  0.14147140  0.51872892  0.29982021     0.12300
C674        C  0.16078744  0.60639442  0.30447484     0.61900
F675        F  0.95747452  0.45867307  0.26149202    -0.23300
F676        F  0.96738912  0.41432115  0.29428141    -0.20600
F677        F  0.99643629  0.42552125  0.24734147    -0.20300
F678        F  0.16083733  0.62263573  0.33291387    -0.20400
F679        F  0.16988191  0.63980171  0.28322189    -0.20700
F680        F  0.19552051  0.59666410  0.30336458    -0.23400
C681        C  0.18775213  0.24421415  0.23909285    -0.06200
C682        C  0.21669191  0.27220129  0.21597788    -0.00300
C683        C  0.20801633  0.30553912  0.20318607    -0.08800
C684        C  0.17590593  0.31397785  0.21698912    -0.06200
C685        C  0.15023945  0.28907408  0.24207609    -0.00300
C686        C  0.15461741  0.25180919  0.25235870    -0.08700
C687        C  0.12687833  0.22177718  0.27846481     0.61600
H688        H  0.19330760  0.21791360  0.24828192     0.12300
H689        H  0.17231562  0.34206503  0.20895958     0.12300
C690        C  0.23297679  0.33350765  0.17567210     0.61900
F691        F  0.13704857  0.18805023  0.28484459    -0.23300
F692        F  0.08124425  0.20073967  0.27144619    -0.20600
F693        F  0.13558983  0.24769425  0.30410793    -0.20300
F694        F  0.23559816  0.30579225  0.15418184    -0.20400
F695        F  0.27605009  0.36737662  0.18364598    -0.20700
F696        F  0.21070705  0.35394562  0.16267861    -0.23400
C697        C  0.00915565  0.35155584  0.43292595    -0.06200
C698        C  0.99316866  0.30864987  0.44646658    -0.00300
C699        C  0.98805371  0.27179900  0.42842703    -0.08800
C700        C  0.99958548  0.27967639  0.39789744    -0.06200
C701        C  0.01530307  0.32217785  0.38459325    -0.00300
C702        C  0.01983598  0.35881147  0.40195560    -0.08700
C703        C  0.03619893  0.40510189  0.38778246     0.61600
H704        H  0.01276754  0.37924928  0.44672672     0.12300
H705        H  0.99628855  0.25231665  0.38380715     0.12300
C706        C  0.97177848  0.22432429  0.44089563     0.61900
F707        F  0.04006730  0.43669594  0.40878299    -0.23300
F708        F  0.00584142  0.40182347  0.36582821    -0.20600
F709        F  0.07818667  0.42074063  0.37477838    -0.20300
F710        F  0.92639693  0.20376240  0.44834403    -0.20400
F711        F  0.99692071  0.22678265  0.46595678    -0.20700
F712        F  0.97652545  0.19671634  0.42029125    -0.23400
C713        C  0.98586195  0.35526506  0.18845736    -0.06200
C714        C  0.02820149  0.35871779  0.19390447    -0.00300
C715        C  0.05471802  0.36029665  0.16870351    -0.08800
C716        C  0.03650023  0.35566734  0.13957664    -0.06200
C717        C  0.99315620  0.34914350  0.13458898    -0.00300
C718        C  0.96812884  0.35113547  0.15922178    -0.08700
C719        C  0.92393882  0.35104933  0.15470224     0.61600
H720        H  0.96613885  0.35536120  0.20739374     0.12300
H721        H  0.05549268  0.35556206  0.12026014     0.12300
C722        C  0.10127321  0.36513766  0.17198881     0.61900
F723        F  0.91075763  0.36354941  0.18062856    -0.23300
F724        F  0.88966136  0.30823743  0.14672699    -0.20600
F725        F  0.92921442  0.38171744  0.13228750    -0.19100
F726        F  0.09772800  0.32922287  0.18884217    -0.20400
F727        F  0.13083123  0.40596735  0.18565047    -0.20700
F728        F  0.11995277  0.36478440  0.14455690    -0.23400
C729        C  0.93445840  0.17774405  0.32707271    -0.06200
C730        C  0.93442378  0.20392506  0.30238066    -0.00300
C731        C  0.89212621  0.19255766  0.28906533    -0.08800
C732        C  0.85187136  0.16074943  0.30374091    -0.06200
C733        C  0.85202049  0.13911728  0.33089953    -0.00300
C734        C  0.89426101  0.14543797  0.34158285    -0.08700
C735        C  0.89805818  0.12007008  0.36874263     0.61600
H736        H  0.96670365  0.18514991  0.33657073     0.12300
H737        H  0.81976588  0.15450402  0.29464832     0.12300
C738        C  0.88856811  0.21495533  0.26032491     0.61900
F739        F  0.94164480  0.12778385  0.37257336    -0.23300
F740        F  0.86984892  0.07383867  0.36497606    -0.20600
F741        F  0.88642079  0.13403344  0.39464457    -0.20300
F742        F  0.92053542  0.21883103  0.23969594    -0.20400
F743        F  0.89514802  0.25752503  0.26672776    -0.20700
F744        F  0.84634140  0.18963736  0.24700937    -0.23400
C745        C  0.43657761  0.52207094  0.46329658    -0.06200
C746        C  0.43535521  0.48228486  0.45332331    -0.00300
C747        C  0.47611326  0.48587225  0.44215950    -0.08800
C748        C  0.51623857  0.52836915  0.44300280    -0.06200
C749        C  0.51775501  0.56783454  0.45370616    -0.00300
C750        C  0.47676441  0.56490380  0.46337859    -0.08700
C751        C  0.47492295  0.60622547  0.47406734     0.61600
H752        H  0.40541019  0.51937301  0.47120294     0.12300
H753        H  0.54735025  0.53109112  0.43497387     0.12300
C754        C  0.47853203  0.44557108  0.42974042     0.61900
F755        F  0.43227054  0.59485241  0.48431664    -0.23300
F756        F  0.48554107  0.63670739  0.45051461    -0.20600
F757        F  0.50523216  0.62685932  0.49749597    -0.20300
F758        F  0.44969390  0.42751372  0.40529686    -0.20400
F759        F  0.46678439  0.41282977  0.45190083    -0.20700
F760        F  0.52163177  0.45768996  0.41997822    -0.23400
C761        C  0.15861657  0.32023878  0.03504489    -0.06200
C762        C  0.16369385  0.29822530  0.50917662    -0.00300
C763        C  0.12127924  0.26209593  0.49905388    -0.08800
C764        C  0.08126955  0.25559652  0.51272858    -0.06200
C765        C  0.07626177  0.28379285  0.03264625    -0.00300
C766        C  0.11791798  0.31476717  0.04674745    -0.08700
C767        C  0.11987620  0.34140316  0.07442377     0.61600
H768        H  0.19053683  0.34666579  0.04401960     0.12300
H769        H  0.04899996  0.22852886  0.50486694     0.12300
C770        C  0.11739314  0.23262985  0.47236668     0.61900
F771        F  0.16131593  0.35927072  0.08895466    -0.23300
F772        F  0.08674078  0.31267658  0.09443218    -0.20600
F773        F  0.11337361  0.37706479  0.06656500    -0.20300
F774        F  0.13932342  0.20874886  0.47870813    -0.20400
F775        F  0.13638315  0.25964930  0.44718754    -0.20700
F776        F  0.07276845  0.20133487  0.46545416    -0.23400
C777        C  0.17256063  0.40211713  0.37535365    -0.06200
C778        C  0.19107597  0.40192449  0.34732259    -0.00300
C779        C  0.23369986  0.40464218  0.34596192    -0.08800
C780        C  0.25538725  0.40479685  0.37310256    -0.06200
C781        C  0.23443397  0.40015804  0.40106305    -0.00300
C782        C  0.19303868  0.40006173  0.40240041    -0.08700
C783        C  0.16937849  0.39506373  0.43219404     0.61600
H784        H  0.13934788  0.39875685  0.37582175     0.12300
H785        H  0.28661590  0.40384410  0.37254738     0.12300
C786        C  0.25451224  0.40455001  0.31590685     0.61900
F787        F  0.13047970  0.39773539  0.42864050    -0.23300
F788        F  0.19833902  0.42931192  0.45141498    -0.20600
F789        F  0.15716253  0.35349230  0.44521219    -0.20300
F790        F  0.25867884  0.44013833  0.29834090    -0.20400
F791        F  0.22724716  0.36407933  0.30109815    -0.20700
F792        F  0.29707782  0.40954079  0.31937869    -0.23400
C793        C  0.39145345  0.35173091  0.06226808    -0.06200
C794        C  0.34760416  0.34230819  0.05432069    -0.00300
C795        C  0.31237644  0.32219270  0.07610016    -0.08800
C796        C  0.32330504  0.31632195  0.10558991    -0.06200
C797        C  0.36715373  0.32729313  0.11367849    -0.00300
C798        C  0.40170953  0.34383000  0.09171748    -0.08700
C799        C  0.44905477  0.35360657  0.09958934     0.61600
H800        H  0.41773422  0.36570410  0.04531557     0.12300
H801        H  0.29731850  0.30239090  0.12273633     0.12300
C802        C  0.26303829  0.30540301  0.06846410     0.61900
F803        F  0.47832229  0.37184018  0.07541152    -0.23300
F804        F  0.44755418  0.31374648  0.10810568    -0.20600
F805        F  0.46630811  0.38419976  0.12309358    -0.20300
F806        F  0.25097935  0.27944874  0.04260522    -0.20400
F807        F  0.25670939  0.34205132  0.06440965    -0.20700
F808        F  0.23416448  0.27846978  0.09114748    -0.23400
C809        C  0.29821749  0.27020291  0.31925824    -0.06200
C810        C  0.32825862  0.30902157  0.30270891    -0.00300
C811        C  0.35445582  0.35100319  0.31772058    -0.08800
C812        C  0.34938260  0.35238945  0.34909669    -0.06200
C813        C  0.31985838  0.31312269  0.36535041    -0.00300
C814        C  0.29453628  0.27120316  0.35043538    -0.08700
C815        C  0.26650547  0.22712445  0.36764889     0.61600
H816        H  0.27840174  0.23828876  0.30754605     0.12300
H817        H  0.36805058  0.38412430  0.36117642     0.12300
C818        C  0.38791492  0.39361903  0.30100339     0.61900
F819        F  0.24842725  0.18959533  0.34899170    -0.23300
F820        F  0.23101860  0.22730297  0.38226635    -0.20600
F821        F  0.29419768  0.22256709  0.38841510    -0.20300
F822        F  0.36479200  0.40576883  0.28087609    -0.20400
F823        F  0.41845653  0.38587710  0.28566218    -0.20700
F824        F  0.41222528  0.42971021  0.32032658    -0.23400
C825        C  0.33600887  0.16673001  0.45304445    -0.06200
C826        C  0.30652167  0.13703952  0.43087888    -0.00300
C827        C  0.26421315  0.13515359  0.42636606    -0.08800
C828        C  0.25674912  0.16780240  0.44069357    -0.06200
C829        C  0.28957012  0.20160149  0.45946691    -0.00300
C830        C  0.32666642  0.19674724  0.46879829    -0.08700
C831        C  0.35718061  0.22278190  0.49497332     0.61600
H832        H  0.36717797  0.16693748  0.45806733     0.12300
H833        H  0.22698601  0.16981335  0.43491017     0.12300
C834        C  0.22803315  0.10117672  0.40525755     0.61900
F835        F  0.36910702  0.19527502  0.51093318    -0.23300
F836        F  0.33533672  0.23643419  0.51481457    -0.20600
F837        F  0.39613045  0.26029537  0.48436941    -0.20300
F838        F  0.21480587  0.05745563  0.41468861    -0.20400
F839        F  0.24469507  0.10789074  0.37623232    -0.20700
F840        F  0.18978834  0.10541199  0.40472361    -0.23400
O841        O  0.27052414  0.31012595  0.90716934    -0.82200
C842        C  0.34464484  0.36406580  0.52159319     0.97100
O843        O  0.36546575  0.35796556  0.50006424    -0.71300
O844        O  0.32494086  0.27880376  0.96555567    -0.74900
Al845      Al  0.34861945  0.34102498  0.95820828     1.49000
C846        C  0.28827518  0.24421500  0.95867011     0.92400
O847        O  0.21251264  0.28195458  0.98266326    -0.81100
O848        O  0.28174718  0.40791615  0.94817620    -0.74700
Al849      Al  0.24547164  0.29875242  0.94568298     1.90100
O850        O  0.23264836  0.35126229  0.99503239    -0.73800
O851        O  0.35779086  0.43218564  0.97969702    -0.73600
O852        O  0.31304760  0.37238693  0.51637976    -0.79300
O853        O  0.38485055  0.40328611  0.94885607    -0.77500
O854        O  0.29690615  0.34123152  0.96250135    -1.13600
O855        O  0.34217209  0.33217822  0.91516838    -0.72800
C856        C  0.30909283  0.32108832  0.89734584     0.97900
C857        C  0.20390664  0.30928102  0.99597834     0.94300
Al858      Al  0.29573674  0.38517214  0.98368048     1.55600
O859        O  0.25488786  0.24817743  0.95094745    -0.77400
C860        C  0.38957222  0.43659107  0.96337755     0.98500
C861        C  0.24759757  0.38301408  0.93186312     0.93300
O862        O  0.22541402  0.34027909  0.93514551    -0.82800
O863        O  0.03228409  0.30417065  0.84336837    -0.82200
C864        C  0.04179669  0.36157186  0.72845347     0.97100
O865        O  0.01083944  0.34065459  0.74780295    -0.71300
O866        O  0.97318519  0.28620253  0.79510633    -0.74900
Al867      Al  0.01520558  0.34934037  0.78976328     1.49000
C868        C  0.97543030  0.25060142  0.79362492     0.92400
O869        O  0.10189429  0.29056678  0.78258113    -0.81100
O870        O  0.15654240  0.40072494  0.80590002    -0.74700
Al871      Al  0.06653204  0.30122165  0.81089009     1.90100
O872        O  0.13237555  0.35044553  0.75386677    -0.73800
O873        O  0.11259667  0.44053562  0.78815522    -0.73600
O874        O  0.08317877  0.38619596  0.73614219    -0.79300
O875        O  0.04017688  0.41285928  0.78424616    -0.77500
O876        O  0.06655589  0.34701333  0.79094635    -1.13600
O877        O  0.01658035  0.35808214  0.83228761    -0.72800
C878        C  0.01854585  0.33095229  0.85109971     0.97900
C879        C  0.12724845  0.31227840  0.76087985     0.94300
Al880      Al  0.11650010  0.39047193  0.77257380     1.55600
O881        O  0.01362437  0.25361576  0.79158347    -0.77400
C882        C  0.07918597  0.44629439  0.78728257     0.98500
C883        C  0.15169899  0.37832638  0.82972411     0.93300
O884        O  0.11747665  0.33983238  0.83384831    -0.82800
O885        O  0.30774927  0.01135943  0.82779727    -0.82200
C886        C  0.37226981  0.02121012  0.94256869     0.97100
O887        O  0.35139168  0.99072920  0.92302765    -0.71300
O888        O  0.29182014  0.95598668  0.87919379    -0.74900
Al889      Al  0.35538233  0.99432064  0.88052380     1.49000
C890        C  0.25780313  0.96070798  0.88189923     0.92400
O891        O  0.30478978  0.08913208  0.88680641    -0.81100
O892        O  0.41121950  0.13723385  0.86533158    -0.74700
Al893      Al  0.31122566  0.04978006  0.85978872     1.90100
O894        O  0.36083887  0.11278743  0.91813369    -0.73800
O895        O  0.44943728  0.09107626  0.88306219    -0.73600
O896        O  0.39579308  0.06271499  0.93493160    -0.79300
O897        O  0.41859013  0.01794063  0.88200425    -0.77500
O898        O  0.35569833  0.04711883  0.87980659    -1.13600
O899        O  0.35904328  0.99236900  0.83746259    -0.72800
C900        C  0.33118293  0.99432654  0.81948798     0.97900
C901        C  0.32466456  0.11106452  0.90999150     0.94300
Al902      Al  0.40008726  0.09631037  0.89865444     1.55600
O903        O  0.26260424  0.99992525  0.88111156    -0.77400
C904        C  0.45317505  0.05647474  0.88017242     0.98500
C905        C  0.39131282  0.13204437  0.84030935     0.93300
O906        O  0.35264242  0.09824092  0.83547558    -0.82800
O907        O  0.33306867  0.26868196  0.76569715    -0.82200
C908        C  0.37375380  0.32346169  0.64458477     0.97100
O909        O  0.37067282  0.34674145  0.66572202    -0.71300
O910        O  0.29661470  0.31114686  0.69903178    -0.74900
Al911      Al  0.35925441  0.33710065  0.70839338     1.49000
C912        C  0.26359270  0.27831587  0.71201820     0.92400
O913        O  0.29645145  0.19675398  0.69517195    -0.81100
O914        O  0.42480139  0.26735136  0.72345906    -0.74700
Al915      Al  0.31767931  0.23650295  0.72935633     1.90100
O916        O  0.36384686  0.21506849  0.67918393    -0.73800
O917        O  0.44871103  0.34164231  0.68932734    -0.73600
O918        O  0.37969336  0.29047702  0.65061073    -0.79300
O919        O  0.42179118  0.37313111  0.71858354    -0.77500
O920        O  0.35887567  0.28441468  0.70842767    -1.13600
O921        O  0.34728162  0.33622473  0.75065587    -0.72800
C922        C  0.33918319  0.30756684  0.77137567     0.97900
C923        C  0.32184261  0.18678945  0.68054772     0.94300
Al924      Al  0.40058826  0.27911849  0.68750041     1.55600
O925        O  0.26867842  0.24749549  0.72392665    -0.77400
C926        C  0.45455978  0.37524125  0.70447621     0.98500
C927        C  0.40086680  0.23602891  0.74208638     0.93300
O928        O  0.35814016  0.21604801  0.74120619    -0.82800
O929        O  0.70609911  0.71557077  0.50782384    -0.82200
C930        C  0.63640520  0.66309541  0.89353730     0.97100
O931        O  0.64613855  0.64326386  0.91410471    -0.71300
O932        O  0.71885625  0.67899949  0.94858273    -0.74900
Al933      Al  0.65554316  0.65151791  0.95674433     1.49000
C934        C  0.75128753  0.71339143  0.96055395     0.92400
O935        O  0.71246258  0.78701792  0.93821543    -0.81100
O936        O  0.58747741  0.71800096  0.97423148    -0.74700
Al937      Al  0.69455147  0.75248034  0.97468941     1.90100
O938        O  0.64319427  0.76797673  0.92545692    -0.73800
O939        O  0.56087119  0.64377749  0.94258489    -0.73600
O940        O  0.62296141  0.69065235  0.89948941    -0.79300
O941        O  0.59354669  0.61196793  0.96573982    -0.77500
O942        O  0.65273896  0.70243202  0.95600545    -1.13600
O943        O  0.65421911  0.64406851  0.49903219    -0.72800
C944        C  0.68052660  0.67518213  0.51704044     0.97900
C945        C  0.68549796  0.79436421  0.92284854     0.94300
Al946      Al  0.60747954  0.70492243  0.93707645     1.55600
O947        O  0.74463659  0.74359650  0.97095589    -0.77400
C948        C  0.55812235  0.61012346  0.95601518     0.98500
C949        C  0.61307710  0.75084486  0.99106425     0.93300
O950        O  0.66651022  0.76067590  0.49649804    -0.82800
O951        O  0.94451032  0.26789565  0.98705659    -0.82200
C952        C  0.97672416  0.33517689  0.60559448     0.97100
O953        O  0.00192167  0.35698236  0.58327894    -0.71300
O954        O  0.03775440  0.31852577  0.55099446    -0.74900
Al955      Al  0.99976781  0.34236352  0.54059948     1.49000
C956        C  0.03764227  0.28464166  0.53999877     0.92400
O957        O  0.92640187  0.20670708  0.56421831    -0.81100
O958        O  0.86571210  0.27273988  0.53054027    -0.74700
Al959      Al  0.93968872  0.23957157  0.52698105     1.90100
O960        O  0.87564641  0.22417918  0.57764983    -0.73800
O961        O  0.91693505  0.34859452  0.56129676    -0.73600
O962        O  0.93700587  0.30211778  0.60172146    -0.79300
O963        O  0.97165236  0.37642095  0.52880372    -0.77500
O964        O  0.94804971  0.28999868  0.54457048    -1.13600
O965        O  0.00124218  0.33659996  0.99589746    -0.72800
C966        C  0.97592125  0.30540141  0.97761722     0.97900
C967        C  0.89180638  0.19803492  0.57947713     0.94300
Al968      Al  0.90256621  0.28712067  0.56596814     1.55600
O969        O  0.00098252  0.25216520  0.53008690    -0.77400
C970        C  0.94217406  0.37977624  0.54343478     0.98500
C971        C  0.85691287  0.23921113  0.51397029     0.93300
O972        O  0.87686081  0.21673557  0.51792977    -0.82800
O973        O  0.72351960  0.01868493  0.93079283    -0.82200
C974        C  0.67186197  0.02173271  0.81458585     0.97100
O975        O  0.66380029  0.99234054  0.83481230    -0.71300
O976        O  0.68588452  0.96078813  0.88214102    -0.74900
Al977      Al  0.66096072  0.99908599  0.87674689     1.49000
C978        C  0.72470698  0.96542732  0.87968922     0.92400
O979        O  0.80659213  0.09406516  0.86959587    -0.81100
O980        O  0.74958591  0.14308000  0.88764891    -0.74700
Al981      Al  0.76012617  0.05557908  0.89759592     1.90100
O982        O  0.77285346  0.11363606  0.83624291    -0.73800
O983        O  0.66443994  0.09537170  0.87199870    -0.73600
O984        O  0.68770560  0.06340847  0.82089377    -0.79300
O985        O  0.62137251  0.02227113  0.87120251    -0.77500
O986        O  0.71343818  0.05176349  0.87660812    -1.13600
O987        O  0.65394481  0.00174280  0.91917449    -0.72800
C988        C  0.68276710  0.00443722  0.93830715     0.97900
C989        C  0.80798707  0.11401957  0.84529773     0.94300
Al990      Al  0.71822305  0.09952048  0.85602468     1.55600
O991        O  0.75901000  0.00470548  0.87834285    -0.77400
C992        C  0.62555799  0.06096514  0.87264473     0.98500
C993        C  0.76399004  0.13919733  0.91316316     0.93300
O994        O  0.76714170  0.10498683  0.91981278    -0.82800
O995        O  0.69514283  0.96565215  0.57362288    -0.82200
C996        C  0.65007284  0.96625745  0.69020640     0.97100
O997        O  0.67182974  0.99555811  0.66988245    -0.71300
O998        O  0.71970841  0.02830869  0.61934322    -0.74900
Al999      Al  0.65749909  0.98785647  0.62830327     1.49000
C1000       C  0.75471876  0.02508096  0.62074299     0.92400
O1001       O  0.71299048  0.89898442  0.63614359    -0.81100
O1002       O  0.60370599  0.84394799  0.61798274    -0.74700
Al1003     Al  0.70093802  0.93322855  0.60707081     1.90100
O1004       O  0.65805475  0.87561960  0.66858711    -0.73800
O1005       O  0.56587318  0.89166703  0.63244102    -0.73600
O1006       O  0.62207264  0.92494427  0.68373681    -0.79300
O1007       O  0.59560641  0.96411208  0.63723441    -0.77500
O1008       O  0.65829180  0.93592051  0.62826913    -1.13600
O1009       O  0.64244626  0.98175655  0.58633092    -0.72800
C1010       C  0.66517339  0.97564519  0.56632068     0.97900
C1011       C  0.69446514  0.87823745  0.66018902     0.94300
Al1012     Al  0.61610799  0.88819534  0.64893729     1.55600
O1013       O  0.75081143  0.98659418  0.62403191    -0.77400
C1014       C  0.56102469  0.92574141  0.63397287     0.98500
C1015       C  0.62286366  0.84677855  0.59318195     0.93300
O1016       O  0.65970086  0.88128026  0.58634608    -0.82800
O1017       O  0.06752512  0.72481696  0.74100975    -0.82200
C1018       C  0.04688251  0.66449584  0.86033409     0.97100
O1019       O  0.02134984  0.64079728  0.83875837    -0.71300
O1020       O  0.98366253  0.67701405  0.80552074    -0.74900
Al1021     Al  0.02112450  0.65228428  0.79608684     1.49000
C1022       C  0.98281789  0.70943250  0.79247938     0.92400
O1023       O  0.09400586  0.78886893  0.81460709    -0.81100
O1024       O  0.15502418  0.72219983  0.78332658    -0.74700
Al1025     Al  0.08020845  0.75394771  0.77829301     1.90100
O1026       O  0.14561962  0.77283012  0.82886526    -0.73800
O1027       O  0.10592112  0.64803782  0.81614926    -0.73600
O1028       O  0.08654200  0.69670697  0.85517804    -0.79300
O1029       O  0.04854668  0.61745247  0.78562373    -0.77500
O1030       O  0.07295369  0.70490110  0.79780665    -1.13600
O1031       O  0.01272139  0.65620291  0.75352077    -0.72800
C1032       C  0.03551550  0.68604964  0.73381610     0.97900
C1033       C  0.12816758  0.79788043  0.83066500     0.94300
Al1034     Al  0.11949048  0.70957253  0.81907804     1.55600
O1035       O  0.01882148  0.74090064  0.78108093    -0.77400
C1036       C  0.07956341  0.61552557  0.79966676     0.98500
C1037       C  0.16328839  0.75483933  0.76576084     0.93300
O1038       O  0.14316522  0.77724231  0.76890091    -0.82800
O1039       O  0.27303209  0.92625872  0.68283037    -0.82200
C1040       C  0.34190004  0.95608287  0.56563559     0.97100
O1041       O  0.36085893  0.98346101  0.58739667    -0.71300
O1042       O  0.32077621  0.01522802  0.62062972    -0.74900
Al1043     Al  0.34805536  0.98024370  0.63003348     1.49000
C1044       C  0.28784291  0.01420330  0.63352245     0.92400
O1045       O  0.21521721  0.90332285  0.60645058    -0.81100
O1046       O  0.28287791  0.84509966  0.64255878    -0.74700
Al1047     Al  0.24661242  0.91584024  0.64444198     1.90100
O1048       O  0.23560236  0.85419409  0.59364819    -0.73800
O1049       O  0.35913475  0.89704109  0.61283922    -0.73600
O1050       O  0.31335922  0.91456880  0.57003660    -0.79300
O1051       O  0.38657312  0.95744163  0.64026608    -0.77500
O1052       O  0.29798428  0.92655283  0.62681293    -1.13600
O1053       O  0.34135896  0.98380925  0.67320043    -0.72800
C1054       C  0.31119862  0.95752318  0.69184781     0.97900
C1055       C  0.20916134  0.86986024  0.59053129     0.94300
Al1056     Al  0.29771582  0.88134673  0.60652195     1.55600
O1057       O  0.25684234  0.97685841  0.64371802    -0.77400
C1058       C  0.39106609  0.92697255  0.62812052     0.98500
C1059       C  0.24771825  0.83437817  0.65778942     0.93300
O1060       O  0.22398592  0.85239065  0.65202313    -0.82800
O1061       O  0.74201326  0.67241762  0.65564844    -0.82200
C1062       C  0.67464000  0.63187704  0.77205638     0.97100
O1063       O  0.65208734  0.63398258  0.74970208    -0.71300
O1064       O  0.68903217  0.70540696  0.71438502    -0.74900
Al1065     Al  0.66498939  0.64289600  0.70677471     1.49000
C1066       C  0.72537519  0.73978220  0.70645267     0.92400
O1067       O  0.80205843  0.70400195  0.73077195    -0.81100
O1068       O  0.73374741  0.57706359  0.69841570    -0.74700
Al1069     Al  0.76818415  0.68548642  0.69394437     1.90100
O1070       O  0.78254201  0.63531384  0.74492682    -0.73800
O1071       O  0.65736649  0.55281419  0.72951768    -0.73600
O1072       O  0.70499081  0.62132632  0.76849685    -0.79300
O1073       O  0.62905784  0.57980632  0.69737783    -0.77500
O1074       O  0.71720516  0.64326722  0.71135503    -1.13600
O1075       O  0.67126957  0.65300258  0.66358115    -0.72800
C1076       C  0.70386024  0.66310754  0.64565855     0.97900
C1077       C  0.81090386  0.67744723  0.74530260     0.94300
Al1078     Al  0.71932696  0.60030211  0.73342656     1.55600
O1079       O  0.75805080  0.73541799  0.69797246    -0.77400
C1080       C  0.62539110  0.54696051  0.71256292     0.98500
C1081       C  0.76783093  0.60181238  0.68197829     0.93300
O1082       O  0.78925550  0.64459288  0.68450313    -0.82800
O1083       O  0.95615120  0.67362631  0.60070952    -0.82200
C1084       C  0.96984405  0.63130956  0.98045066     0.97100
O1085       O  0.99477303  0.63263556  0.00214847    -0.71300
O1086       O  0.03525212  0.70511074  0.53360924    -0.74900
Al1087     Al  0.99858360  0.64375895  0.54590950     1.49000
C1088       C  0.03708314  0.73983115  0.54481197     0.92400
O1089       O  0.92567560  0.70732055  0.52667963    -0.81100
O1090       O  0.86515963  0.58043052  0.56032378    -0.74700
Al1091     Al  0.94147698  0.68783012  0.56293778     1.90100
O1092       O  0.87354113  0.63900245  0.51357844    -0.73800
O1093       O  0.91369600  0.55448115  0.52751499    -0.73600
O1094       O  0.93107865  0.62614653  0.98519078    -0.79300
O1095       O  0.97075344  0.58205600  0.55855910    -0.77500
O1096       O  0.94718290  0.64485130  0.54427924    -1.13600
O1097       O  0.00977454  0.65915809  0.58816960    -0.72800
C1098       C  0.98846943  0.66768990  0.60789757     0.97900
C1099       C  0.89037536  0.68160457  0.51183210     0.94300
Al1100     Al  0.89986145  0.60221615  0.52393068     1.55600
O1101       O  0.00263882  0.73628707  0.55753173    -0.77400
C1102       C  0.94059186  0.54906324  0.54404560     0.98500
C1103       C  0.85815882  0.60560833  0.57766728     0.93300
O1104       O  0.87930583  0.64832795  0.57414234    -0.82800
C1105       C  0.84708985  0.58758043  0.63165245    -0.06200
C1106       C  0.82738567  0.58692800  0.60369093    -0.00300
C1107       C  0.78277266  0.57934131  0.60255432    -0.08800
C1108       C  0.76055739  0.57670061  0.62976501    -0.06200
C1109       C  0.78258385  0.58315009  0.65762166    -0.00300
C1110       C  0.82550309  0.58638628  0.65882919    -0.08700
C1111       C  0.84952783  0.59177241  0.68867899     0.61600
H1112       H  0.88141693  0.59359631  0.63204165     0.12300
H1113       H  0.72802402  0.57502754  0.62926746     0.12300
C1114       C  0.76042877  0.57764207  0.57265174     0.61900
F1115       F  0.88798592  0.58834455  0.68538028    -0.23300
F1116       F  0.82066842  0.55812892  0.70843998    -0.20600
F1117       F  0.86232920  0.63375634  0.70092189    -0.20300
F1118       F  0.76172052  0.54564779  0.55434574    -0.20400
F1119       F  0.78325048  0.61972032  0.55871452    -0.20700
F1120       F  0.71557916  0.56592147  0.57619121    -0.23400
C1121       C  0.13173628  0.85248158  0.57410696    -0.06200
C1122       C  0.16860496  0.84538422  0.57043886    -0.00300
C1123       C  0.16402618  0.81198924  0.54936092    -0.08800
C1124       C  0.12053776  0.78047651  0.53878742    -0.06200
C1125       C  0.08204023  0.78280097  0.54683716    -0.00300
C1126       C  0.08881202  0.82284536  0.56133979    -0.08700
C1127       C  0.05228778  0.83581542  0.56211424     0.61600
H1128       H  0.13599156  0.88027265  0.58809191     0.12300
H1129       H  0.11624936  0.75188987  0.52567851     0.12300
C1130       C  0.20395902  0.80813935  0.53819940     0.61900
F1131       F  0.07036496  0.88117885  0.56936533    -0.23300
F1132       F  0.01942841  0.81039156  0.58311289    -0.20600
F1133       F  0.03238077  0.82909568  0.53399832    -0.20300
F1134       F  0.21636854  0.78668674  0.55957400    -0.20400
F1135       F  0.24022140  0.85086928  0.53192142    -0.20700
F1136       F  0.19331745  0.78313004  0.51191340    -0.23400
C1137       C  0.25738781  0.82450274  0.71157858    -0.06200
C1138       C  0.23534276  0.80447161  0.68441317    -0.00300
C1139       C  0.19532665  0.76157016  0.68490312    -0.08800
C1140       C  0.17492475  0.74293422  0.71284428    -0.06200
C1141       C  0.19395736  0.76609600  0.73984484    -0.00300
C1142       C  0.23720740  0.80560888  0.73953568    -0.08700
C1143       C  0.26090197  0.82787765  0.76871755     0.61600
H1144       H  0.28853780  0.85704077  0.71075310     0.12300
H1145       H  0.14197072  0.71229693  0.71354919     0.12300
C1146       C  0.17354369  0.73695679  0.65586802     0.61900
F1147       F  0.30342616  0.86523227  0.76373202    -0.23300
F1148       F  0.26593488  0.79678320  0.78603500    -0.20600
F1149       F  0.23549401  0.84191721  0.78452919    -0.20300
F1150       F  0.13899908  0.69288605  0.66124711    -0.20400
F1151       F  0.20579375  0.73509093  0.63819951    -0.20700
F1152       F  0.15580194  0.75975532  0.64027354    -0.23400
C1153       C  0.98191796  0.62554664  0.89542279    -0.06200
C1154       C  0.02891559  0.65479722  0.89177614    -0.00300
C1155       C  0.05618790  0.67468132  0.91789514    -0.08800
C1156       C  0.03495147  0.66554083  0.94608955    -0.06200
C1157       C  0.98799546  0.63755159  0.94945826    -0.00300
C1158       C  0.96086720  0.61642616  0.92376262    -0.08700
C1159       C  0.91014469  0.58379403  0.92599034     0.61600
H1160       H  0.96117068  0.61041198  0.87564947     0.12300
H1161       H  0.05507452  0.68146305  0.96599620     0.12300
C1162       C  0.10722671  0.70631446  0.91672204     0.61900
F1163       F  0.89181464  0.56241205  0.89887890    -0.23300
F1164       F  0.88852212  0.60720070  0.93407022    -0.20600
F1165       F  0.90149139  0.55048272  0.94722380    -0.20300
F1166       F  0.11656413  0.74617570  0.90241409    -0.20400
F1167       F  0.12742712  0.68581347  0.90159338    -0.20700
F1168       F  0.12660743  0.71761670  0.94513460    -0.23400
C1169       C  0.02013207  0.71341437  0.68710039    -0.06200
C1170       C  0.02267722  0.67836981  0.70180273    -0.00300
C1171       C  0.01611684  0.64010165  0.68536319    -0.08800
C1172       C  0.00521473  0.63754184  0.65446131    -0.06200
C1173       C  0.00199271  0.67256852  0.63992791    -0.00300
C1174       C  0.01120238  0.71188785  0.65631272    -0.08700
C1175       C  0.01534928  0.75374304  0.64106377     0.61600
H1176       H  0.02592929  0.74272089  0.70005227     0.12300
H1177       H  0.99900691  0.60822548  0.64147567     0.12300
C1178       C  0.02289237  0.60369866  0.70004804     0.61900
F1179       F  0.03222002  0.79059995  0.66028104    -0.23300
F1180       F  0.97351333  0.74525679  0.63087684    -0.20600
F1181       F  0.04511134  0.76553472  0.61729576    -0.20300
F1182       F  0.99053452  0.58132984  0.72204447    -0.20400
F1183       F  0.06557751  0.62367998  0.71292261    -0.20700
F1184       F  0.01949757  0.57185475  0.67943443    -0.23400
C1185       C  0.85581581  0.66791890  0.78609119    -0.06200
C1186       C  0.85518602  0.69385830  0.76148502    -0.00300
C1187       C  0.89719802  0.73027411  0.75093850    -0.08800
C1188       C  0.93788779  0.73670381  0.76392729    -0.06200
C1189       C  0.93857968  0.70795163  0.78668140    -0.00300
C1190       C  0.89645396  0.67462567  0.79926078    -0.08700
C1191       C  0.89343357  0.64475547  0.82575938     0.61600
H1192       H  0.82385326  0.64029327  0.79411114     0.12300
H1193       H  0.96987683  0.76271354  0.75475303     0.12300
C1194       C  0.89987628  0.76046693  0.72471503     0.61900
F1195       F  0.85065851  0.62327794  0.83851047    -0.23300
F1196       F  0.92400245  0.67082389  0.84792323    -0.20600
F1197       F  0.90248674  0.61155403  0.81632082    -0.20300
F1198       F  0.87696297  0.78300278  0.73177596    -0.20400
F1199       F  0.88106176  0.73439357  0.69926555    -0.20700
F1200       F  0.94412637  0.79299069  0.71791065    -0.23400
C1201       C  0.51663982  0.96472303  0.63065249    -0.06200
C1202       C  0.51583469  0.92300441  0.63226850    -0.00300
C1203       C  0.47305008  0.88213288  0.63309617    -0.08800
C1204       C  0.43319345  0.88505431  0.63203361    -0.06200
C1205       C  0.43452301  0.92698276  0.63086932    -0.00300
C1206       C  0.47719459  0.96770795  0.63018694    -0.08700
C1207       C  0.48187181  0.01453957  0.62828678     0.61600
H1208       H  0.54902031  0.99588449  0.62988329     0.12300
H1209       H  0.40031498  0.85434990  0.63230746     0.12300
C1210       C  0.46886175  0.83566745  0.63533881     0.61900
F1211       F  0.46612636  0.02325600  0.65452116    -0.23300
F1212       F  0.45757411  0.01662322  0.60393391    -0.20600
F1213       F  0.52645850  0.04882483  0.62467804    -0.20300
F1214       F  0.49053723  0.83321282  0.66108270    -0.20400
F1215       F  0.48801036  0.82822737  0.61026079    -0.20700
F1216       F  0.42409740  0.80104052  0.63685881    -0.23400
C1217       C  0.68718512  0.82653030  0.70253546    -0.06200
C1218       C  0.71266552  0.85291383  0.67772478    -0.00300
C1219       C  0.75129117  0.85012393  0.66901355    -0.08800
C1220       C  0.75744271  0.81542587  0.68162740    -0.06200
C1221       C  0.72738402  0.78449983  0.70307275    -0.00300
C1222       C  0.69474638  0.79336381  0.71596368    -0.08700
C1223       C  0.66566798  0.76660894  0.74259212     0.61600
H1224       H  0.65928997  0.83007600  0.71064770     0.12300
H1225       H  0.78379286  0.80998291  0.67280173     0.12300
C1226       C  0.78517741  0.88179938  0.64577174     0.61900
F1227       F  0.65211357  0.79233146  0.75873343    -0.23300
F1228       F  0.68968100  0.75454854  0.76207772    -0.20600
F1229       F  0.62742406  0.72793661  0.73249327    -0.20300
F1230       F  0.79822564  0.92638279  0.65236096    -0.20400
F1231       F  0.76621333  0.87102895  0.61730093    -0.20700
F1232       F  0.82395623  0.87849159  0.64554802    -0.23400
C1233       C  0.61779470  0.96760533  0.73967983    -0.06200
C1234       C  0.65647054  0.98047817  0.72209422    -0.00300
C1235       C  0.70005310  0.00566526  0.73535977    -0.08800
C1236       C  0.70345313  0.01938267  0.76551657    -0.06200
C1237       C  0.66487275  0.00745545  0.78281732    -0.00300
C1238       C  0.62126341  0.98067137  0.77003132    -0.08700
C1239       C  0.57883759  0.96760003  0.78806322     0.61600
H1240       H  0.58478072  0.94785445  0.72923719     0.12300
H1241       H  0.73641734  0.03909194  0.77604982     0.12300
C1242       C  0.74264729  0.01626274  0.71823938     0.61900
F1243       F  0.53980227  0.94165210  0.77140275    -0.23300
F1244       F  0.57933592  0.00659987  0.79702488    -0.20600
F1245       F  0.57720142  0.94262141  0.81318955    -0.20300
F1246       F  0.75067784  0.04763730  0.69575947    -0.20400
F1247       F  0.73755545  0.97692982  0.70560332    -0.20700
F1248       F  0.78032149  0.03412814  0.73686742    -0.23400
C1249       C  0.65827123  0.01746983  0.98792008    -0.06200
C1250       C  0.66950788  0.99082896  0.96996979    -0.00300
C1251       C  0.67158483  0.95399864  0.98312324    -0.08800
C1252       C  0.66616890  0.95055065  0.51500271    -0.06200
C1253       C  0.65779393  0.97867991  0.53357588    -0.00300
C1254       C  0.64740566  0.01028474  0.52012466    -0.08700
C1255       C  0.63327711  0.03806026  0.53886943     0.61600
H1256       H  0.65543939  0.04458710  0.97718872     0.12300
H1257       H  0.67167214  0.92484632  0.52538197     0.12300
C1258       C  0.67952755  0.92166445  0.96437568     0.61900
F1259       F  0.62484131  0.06664447  0.52118947    -0.23300
F1260       F  0.66717846  0.06434513  0.55920019    -0.20600
F1261       F  0.59391051  0.00927875  0.55431047    -0.20300
F1262       F  0.72277068  0.94445160  0.95294012    -0.20400
F1263       F  0.64863687  0.90481151  0.94093658    -0.20700
F1264       F  0.67512223  0.88524132  0.98116697    -0.23400
C1265       C  0.93674934  0.44046603  0.56955363    -0.06200
C1266       C  0.93929546  0.42187653  0.54210984    -0.00300
C1267       C  0.93955650  0.44408631  0.51497224    -0.08800
C1268       C  0.93838618  0.48486708  0.51664860    -0.06200
C1269       C  0.93852681  0.50456599  0.54444064    -0.00300
C1270       C  0.93752235  0.48193271  0.57145554    -0.08700
C1271       C  0.93774198  0.50166243  0.60203491     0.61600
H1272       H  0.93583310  0.42254252  0.59013574     0.12300
H1273       H  0.95817815  0.51484247  0.99482276     0.12300
C1274       C  0.96044233  0.43745693  0.98379091     0.61900
F1275       F  0.93018235  0.47121502  0.62516922    -0.23300
F1276       F  0.90417915  0.51300625  0.60323309    -0.20600
F1277       F  0.97943514  0.54003624  0.60687619    -0.20300
F1278       F  0.92972139  0.39243353  0.97738777    -0.20400
F1279       F  0.00345500  0.44338558  0.98625805    -0.20700
F1280       F  0.96019282  0.46340793  0.95972695    -0.23400
C1281       C  0.83557106  0.24295995  0.96039092    -0.06200
C1282       C  0.81877016  0.22439784  0.98901339    -0.00300
C1283       C  0.77765464  0.18274264  0.99139607    -0.08800
C1284       C  0.75729291  0.15835358  0.96508033    -0.06200
C1285       C  0.77732290  0.17395549  0.93673396    -0.00300
C1286       C  0.81574508  0.21791065  0.93394287    -0.08700
C1287       C  0.83790708  0.23629058  0.90362362     0.61600
H1288       H  0.86745394  0.27476361  0.95909562     0.12300
H1289       H  0.72752728  0.12477733  0.96698040     0.12300
C1290       C  0.75771739  0.17526152  0.52132010     0.61900
F1291       F  0.87515609  0.27962809  0.90591592    -0.23300
F1292       F  0.80703257  0.23811128  0.88423387    -0.20600
F1293       F  0.85218937  0.20828778  0.89157651    -0.20300
F1294       F  0.75899848  0.21191591  0.53547958    -0.20400
F1295       F  0.78008829  0.15909161  0.53898127    -0.20700
F1296       F  0.71289861  0.14134400  0.51867277    -0.23400
C1297       C  0.86428675  0.11550393  0.58486770    -0.06200
C1298       C  0.86665053  0.15473472  0.59682796    -0.00300
C1299       C  0.83909244  0.15010646  0.62193065    -0.08800
C1300       C  0.80513788  0.10643941  0.63075233    -0.06200
C1301       C  0.79921048  0.06720698  0.61651337    -0.00300
C1302       C  0.83083922  0.07152266  0.59423162    -0.08700
C1303       C  0.82709854  0.03041779  0.57842004     0.61600
H1304       H  0.88617610  0.11941046  0.56617144     0.12300
H1305       H  0.78109735  0.10295588  0.64787094     0.12300
C1306       C  0.84250612  0.19044504  0.63851556     0.61900
F1307       F  0.86204830  0.04241465  0.55817759    -0.23300
F1308       F  0.78680537  0.00829587  0.56261121    -0.20600
F1309       F  0.82875622  0.00106055  0.59936352    -0.20300
F1310       F  0.81440492  0.20365527  0.62492288    -0.20400
F1311       F  0.88657022  0.22642155  0.63864656    -0.20700
F1312       F  0.82943309  0.17921364  0.66825238    -0.23400
C1313       C  0.68881065  0.66890007  0.85420671    -0.06200
C1314       C  0.64440564  0.65617523  0.86195337    -0.00300
C1315       C  0.60992249  0.63795660  0.83981670    -0.08800
C1316       C  0.62103697  0.63090511  0.81055123    -0.06200
C1317       C  0.66544481  0.64190942  0.80299041    -0.00300
C1318       C  0.70038495  0.66326286  0.82495830    -0.08700
C1319       C  0.75006034  0.68165122  0.81772041     0.61600
H1320       H  0.71469330  0.68388675  0.87145159     0.12300
H1321       H  0.59493793  0.61637842  0.79343559     0.12300
C1322       C  0.56168084  0.62528319  0.84736038     0.61900
F1323       F  0.77829462  0.70922749  0.84039774    -0.23300
F1324       F  0.76148603  0.70745478  0.79161609    -0.20600
F1325       F  0.75799478  0.64601042  0.81428178    -0.20300
F1326       F  0.56032297  0.66393267  0.85475497    -0.20400
F1327       F  0.54628075  0.59541178  0.87151110    -0.20700
F1328       F  0.53250749  0.60469213  0.82335587    -0.23400
C1329       C  0.72773245  0.69128372  0.56200926    -0.06200
C1330       C  0.68436165  0.66625134  0.54937576    -0.00300
C1331       C  0.64702170  0.63905733  0.56832156    -0.08800
C1332       C  0.65466596  0.63876770  0.59964713    -0.06200
C1333       C  0.69822186  0.66472778  0.61238371    -0.00300
C1334       C  0.73560214  0.69190480  0.59301669    -0.08700
C1335       C  0.78379017  0.72301775  0.60439573     0.61600
H1336       H  0.75591732  0.71135472  0.54705169     0.12300
H1337       H  0.62653291  0.61807686  0.61445985     0.12300
C1338       C  0.59945601  0.61118774  0.55566182     0.61900
F1339       F  0.81217844  0.75117513  0.58193793    -0.23300
F1340       F  0.80195341  0.69729169  0.61503719    -0.20600
F1341       F  0.78376295  0.75078551  0.62696099    -0.20300
F1342       F  0.59742098  0.57801131  0.53688551    -0.20400
F1343       F  0.58800961  0.63887728  0.53953404    -0.20700
F1344       F  0.56762009  0.58994093  0.57816945    -0.23400
C1345       C  0.74475517  0.87454476  0.91173850    -0.06200
C1346       C  0.70293202  0.83627758  0.90397963    -0.00300
C1347       C  0.67732451  0.84048656  0.88013433    -0.08800
C1348       C  0.68993535  0.88408855  0.86936217    -0.06200
C1349       C  0.72744027  0.92324699  0.88101491    -0.00300
C1350       C  0.75813273  0.91819250  0.90005396    -0.08700
C1351       C  0.80404522  0.95820311  0.90856703     0.61600
H1352       H  0.76566350  0.87066649  0.92854228     0.12300
H1353       H  0.66791066  0.88820892  0.85358667     0.12300
C1354       C  0.63585257  0.79998763  0.86654912     0.61900
F1355       F  0.82915251  0.94465759  0.92577083    -0.23300
F1356       F  0.79931389  0.98979352  0.92497818    -0.20600
F1357       F  0.82820225  0.97858700  0.88265809    -0.20300
F1358       F  0.59911644  0.78547812  0.88552775    -0.20400
F1359       F  0.64447620  0.76500891  0.86172404    -0.20700
F1360       F  0.62444151  0.81091189  0.83902519    -0.23400
C1361       C  0.58886413  0.81568400  0.54373272    -0.06200
C1362       C  0.60485750  0.80921077  0.57154402    -0.00300
C1363       C  0.61682156  0.77527330  0.57440529    -0.08800
C1364       C  0.61745075  0.75250744  0.54845945    -0.06200
C1365       C  0.60731377  0.76330156  0.51997443    -0.00300
C1366       C  0.58915976  0.79237999  0.51767543    -0.08700
C1367       C  0.55749480  0.79727916  0.99143709     0.61600
H1368       H  0.57971721  0.84180486  0.54207850     0.12300
H1369       H  0.63032166  0.72925104  0.54976700     0.12300
C1370       C  0.63345186  0.76661424  0.60410614     0.61900
F1371       F  0.54165920  0.82691808  0.99644154    -0.23300
F1372       F  0.52119792  0.75572206  0.98308899    -0.20600
F1373       F  0.58818706  0.81421171  0.96801467    -0.20300
F1374       F  0.60128193  0.75646995  0.62614358    -0.20400
F1375       F  0.67343362  0.80481841  0.61240057    -0.20700
F1376       F  0.64148754  0.73070818  0.60229831    -0.23400
C1377       C  0.83199440  0.74649435  0.48460079    -0.06200
C1378       C  0.79573215  0.71583600  0.96672205    -0.00300
C1379       C  0.80830212  0.68601997  0.95358345    -0.08800
C1380       C  0.84097218  0.67897975  0.96825994    -0.06200
C1381       C  0.86664834  0.69967383  0.49281034    -0.00300
C1382       C  0.86412454  0.73901816  0.49995735    -0.08700
C1383       C  0.89290741  0.77145647  0.52467115     0.61600
H1384       H  0.82577976  0.77307511  0.49203371     0.12300
H1385       H  0.84761291  0.65312931  0.95983917     0.12300
C1386       C  0.78708132  0.66072559  0.92465487     0.61900
F1387       F  0.88419215  0.74856185  0.55185623    -0.23300
F1388       F  0.88425399  0.80674337  0.52810239    -0.20600
F1389       F  0.93823550  0.79023733  0.51757122    -0.20300
F1390       F  0.77948254  0.68796798  0.90508314    -0.20400
F1391       F  0.74658212  0.62154215  0.93084903    -0.20700
F1392       F  0.81548504  0.64887915  0.91027248    -0.23400
C1393       C  0.51704638  0.43678115  0.73394415    -0.06200
C1394       C  0.49980374  0.41770959  0.70565553    -0.00300
C1395       C  0.52432850  0.44122313  0.67941666    -0.08800
C1396       C  0.56536200  0.48300492  0.68262769    -0.06200
C1397       C  0.58290542  0.50169550  0.71100833    -0.00300
C1398       C  0.55821758  0.47820794  0.73717458    -0.08700
C1399       C  0.57412396  0.49765137  0.76842163     0.61600
H1400       H  0.49778006  0.41873145  0.75367349     0.12300
H1401       H  0.58422168  0.50159645  0.66288343     0.12300
C1402       C  0.50645843  0.42339063  0.64810173     0.61900
F1403       F  0.54259764  0.47219698  0.79031722    -0.23300
F1404       F  0.58114062  0.54123339  0.76941639    -0.20600
F1405       F  0.61402817  0.49846699  0.77534206    -0.20300
F1406       F  0.46360939  0.41757917  0.64465033    -0.20400
F1407       F  0.50458557  0.38233110  0.64391145    -0.20700
F1408       F  0.53383707  0.45299060  0.62582219    -0.23400
C1409       C  0.32475287  0.14059845  0.63858048    -0.06200
C1410       C  0.30423110  0.14153923  0.66566951    -0.00300
C1411       C  0.27323787  0.09953245  0.67960196    -0.08800
C1412       C  0.26537593  0.05854438  0.66633137    -0.06200
C1413       C  0.28878209  0.05782857  0.64050364    -0.00300
C1414       C  0.31787802  0.09984817  0.62571860    -0.08700
C1415       C  0.34328013  0.10269758  0.59708089     0.61600
H1416       H  0.34870104  0.17268018  0.62832805     0.12300
H1417       H  0.24330341  0.02663206  0.67758238     0.12300
C1418       C  0.25138989  0.09769057  0.70965765     0.61900
F1419       F  0.36070410  0.14470898  0.58316339    -0.23300
F1420       F  0.31427556  0.07022009  0.57690787    -0.20600
F1421       F  0.37914850  0.09604885  0.60368870    -0.20300
F1422       F  0.22400289  0.11659390  0.70677612    -0.20400
F1423       F  0.28462370  0.12134147  0.73098161    -0.20700
F1424       F  0.22481452  0.05358260  0.72009535    -0.23400
C1425       C  0.53723389  0.09685527  0.88855548    -0.06200
C1426       C  0.49831566  0.06028721  0.87557355    -0.00300
C1427       C  0.50305181  0.02702314  0.85948278    -0.08800
C1428       C  0.54496020  0.02887849  0.85980888    -0.06200
C1429       C  0.58360144  0.06433792  0.87352045    -0.00300
C1430       C  0.58021053  0.10004668  0.88729270    -0.08700
C1431       C  0.62118709  0.14078573  0.90103712     0.61600
H1432       H  0.53356718  0.12265296  0.90015441     0.12300
H1433       H  0.54772459  0.00204773  0.84898760     0.12300
C1434       C  0.46505842  0.99080509  0.84050508     0.61900
F1435       F  0.60967547  0.16974346  0.91502060    -0.23300
F1436       F  0.65221391  0.16520628  0.87869086    -0.20600
F1437       F  0.64112472  0.12649004  0.92232151    -0.20300
F1438       F  0.44613816  0.01071979  0.82311261    -0.20400
F1439       F  0.43237349  0.95749998  0.85871431    -0.20700
F1440       F  0.48054033  0.96998496  0.82109838    -0.23400
C1441       C  0.42118181  0.20974089  0.82013018    -0.06200
C1442       C  0.41258927  0.16548472  0.81563097    -0.00300
C1443       C  0.41493941  0.15141688  0.78604904    -0.08800
C1444       C  0.41790875  0.17911161  0.76157760    -0.06200
C1445       C  0.42080175  0.22112929  0.76591062    -0.00300
C1446       C  0.42597499  0.23819921  0.79559657    -0.08700
C1447       C  0.43219136  0.28435650  0.80252189     0.61600
H1448       H  0.42027734  0.22083283  0.84280986     0.12300
H1449       H  0.41401341  0.16604229  0.73888642     0.12300
C1450       C  0.41092163  0.10610509  0.77910678     0.61900
F1451       F  0.46817878  0.30702758  0.82220372    -0.23300
F1452       F  0.39337952  0.27882150  0.81600939    -0.20600
F1453       F  0.44126789  0.31094986  0.77700252    -0.20300
F1454       F  0.36895335  0.07793535  0.76633615    -0.20400
F1455       F  0.41619715  0.08538997  0.80445873    -0.20700
F1456       F  0.44422364  0.11237357  0.75885076    -0.23400
C1457       C  0.18014490  0.83817228  0.87308980    -0.06200
C1458       C  0.15030766  0.83823877  0.85112208    -0.00300
C1459       C  0.14605680  0.87766322  0.84849771    -0.08800
C1460       C  0.17835811  0.91792247  0.86330847    -0.06200
C1461       C  0.21254273  0.91872248  0.88154268    -0.00300
C1462       C  0.20900682  0.87690612  0.88971752    -0.08700
C1463       C  0.23714549  0.87233701  0.91454500     0.61600
H1464       H  0.18232889  0.80789117  0.87682284     0.12300
H1465       H  0.18007102  0.94984474  0.85807528     0.12300
C1466       C  0.10965151  0.87846000  0.82925181     0.61900
F1467       F  0.20904792  0.83688043  0.93348646    -0.23300
F1468       F  0.25942103  0.91120724  0.93182069    -0.20600
F1469       F  0.26861861  0.86304980  0.90211893    -0.20300
F1470       F  0.06748603  0.84384038  0.83823431    -0.20400
F1471       F  0.11631401  0.87302564  0.79927585    -0.20700
F1472       F  0.10992762  0.91904778  0.83208311    -0.23400
C1473       C  0.36377152  0.98772985  0.77090103    -0.06200
C1474       C  0.32543595  0.97772613  0.78804250    -0.00300
C1475       C  0.28226156  0.95567353  0.77399535    -0.08800
C1476       C  0.27969735  0.95011318  0.74271209    -0.06200
C1477       C  0.31840356  0.96375345  0.72497724    -0.00300
C1478       C  0.36098313  0.98047191  0.73951476    -0.08700
C1479       C  0.40309051  0.98991853  0.72236502     0.61600
H1480       H  0.39637830  0.00356945  0.78189908     0.12300
H1481       H  0.24690700  0.93569229  0.73181211     0.12300
C1482       C  0.23863280  0.93640532  0.79188177     0.61900
F1483       F  0.43864229  0.99866324  0.74156280    -0.23300
F1484       F  0.41677457  0.02738091  0.70389641    -0.20600
F1485       F  0.39396929  0.95248450  0.70522833    -0.20300
F1486       F  0.23084520  0.97078612  0.80046577    -0.20400
F1487       F  0.24164174  0.91404862  0.81709124    -0.20700
F1488       F  0.20170341  0.90535753  0.77518852    -0.23400
C1489       C  0.36634047  0.96518893  0.98094052    -0.06200
C1490       C  0.36904757  0.00707422  0.97476510    -0.00300
C1491       C  0.36595125  0.03233363  0.99903160    -0.08800
C1492       C  0.33719268  0.00441983  0.52615827    -0.06200
C1493       C  0.35107643  0.97360506  0.53440031    -0.00300
C1494       C  0.37064959  0.95870255  0.51258806    -0.08700
C1495       C  0.38449433  0.92397468  0.52045446     0.61600
H1496       H  0.36943491  0.94652652  0.96236112     0.12300
H1497       H  0.32121385  0.01425443  0.54310271     0.12300
C1498       C  0.36745961  0.07722462  0.99411947     0.61900
F1499       F  0.40752422  0.91792479  0.49707038    -0.23300
F1500       F  0.34630348  0.88256807  0.52661086    -0.20600
F1501       F  0.41252961  0.93806511  0.54546890    -0.20300
F1502       F  0.36027339  0.09403685  0.02046657    -0.20400
F1503       F  0.33394085  0.07114074  0.97394139    -0.20700
F1504       F  0.40941580  0.10942950  0.98317928    -0.23400
C1505       C  0.07789367  0.55451080  0.76848835    -0.06200
C1506       C  0.08451702  0.57462489  0.79695070    -0.00300
C1507       C  0.09338522  0.55401878  0.82207754    -0.08800
C1508       C  0.09312468  0.51282903  0.81783627    -0.06200
C1509       C  0.08493378  0.49224654  0.78952797    -0.00300
C1510       C  0.07871161  0.51401626  0.76424925    -0.08700
C1511       C  0.07349088  0.49459743  0.73288305     0.61600
H1512       H  0.07177422  0.57069396  0.74948955     0.12300
H1513       H  0.09818562  0.49565796  0.83676764     0.12300
C1514       C  0.10129532  0.57416853  0.85345582     0.61900
F1515       F  0.07208913  0.52305436  0.71102383    -0.23300
F1516       F  0.03384422  0.45315478  0.73108491    -0.20600
F1517       F  0.10986408  0.48871771  0.72672062    -0.20300
F1518       F  0.06549286  0.57995341  0.86156439    -0.20400
F1519       F  0.14111546  0.61565407  0.85398899    -0.20700
F1520       F  0.10499068  0.54643014  0.87484374    -0.23400
C1521       C  0.19236658  0.25101915  0.74108245    -0.06200
C1522       C  0.22051389  0.27886084  0.71765015    -0.00300
C1523       C  0.21075460  0.31116291  0.70461367    -0.08800
C1524       C  0.17830813  0.31907145  0.71850358    -0.06200
C1525       C  0.15381675  0.29487134  0.74427102    -0.00300
C1526       C  0.15917725  0.25812754  0.75465008    -0.08700
C1527       C  0.13209780  0.22751529  0.78080956     0.61600
H1528       H  0.19878850  0.22537062  0.75042096     0.12300
H1529       H  0.17365915  0.34622944  0.70990404     0.12300
C1530       C  0.23552551  0.33912428  0.67705499     0.61900
F1531       F  0.14089045  0.19244153  0.78542745    -0.23300
F1532       F  0.08622139  0.20806313  0.77496467    -0.20600
F1533       F  0.14304545  0.25240234  0.80710609    -0.20300
F1534       F  0.24188315  0.31259654  0.65642826    -0.20400
F1535       F  0.27703558  0.37533557  0.68552054    -0.20700
F1536       F  0.21100507  0.35614863  0.66277601    -0.23400
C1537       C  0.00211096  0.35564448  0.93223832    -0.06200
C1538       C  0.98337237  0.31166227  0.94463423    -0.00300
C1539       C  0.97292187  0.27442449  0.92532274    -0.08800
C1540       C  0.98170912  0.28290591  0.89460722    -0.06200
C1541       C  0.00272293  0.32685641  0.88247289    -0.00300
C1542       C  0.01213606  0.36400878  0.90124017    -0.08700
C1543       C  0.03368832  0.41204989  0.88888134     0.61600
H1544       H  0.00939681  0.38353711  0.94712451     0.12300
H1545       H  0.97339102  0.25481738  0.87959530     0.12300
C1546       C  0.95480478  0.22591448  0.93658214     0.61900
F1547       F  0.04139235  0.44326603  0.91123017    -0.23300
F1548       F  0.00534391  0.41469417  0.86762268    -0.20600
F1549       F  0.07479228  0.42396417  0.87569125    -0.20300
F1550       F  0.91038939  0.20752936  0.94594537    -0.20400
F1551       F  0.98136716  0.22541114  0.96001984    -0.20700
F1552       F  0.95554788  0.19801633  0.91440358    -0.23400
C1553       C  0.98905908  0.35970836  0.68982027    -0.06200
C1554       C  0.02830614  0.35797752  0.69640295    -0.00300
C1555       C  0.05140566  0.35029060  0.67286216    -0.08800
C1556       C  0.03450746  0.34541069  0.64328167    -0.06200
C1557       C  0.99483596  0.34646540  0.63674470    -0.00300
C1558       C  0.97178418  0.35413328  0.66042318    -0.08700
C1559       C  0.93110398  0.35974023  0.65469441     0.61600
H1560       H  0.97199840  0.36574407  0.70814472     0.12300
H1561       H  0.05119727  0.33896365  0.62504691     0.12300
C1562       C  0.09171935  0.34423397  0.67922232     0.61900
F1563       F  0.91544171  0.36913806  0.68078434    -0.23300
F1564       F  0.89571455  0.32085690  0.64237631    -0.20600
F1565       F  0.94382241  0.39570471  0.63526551    -0.19100
F1566       F  0.08013961  0.31091894  0.70093993    -0.20400
F1567       F  0.12795724  0.38472153  0.68909202    -0.20700
F1568       F  0.10542113  0.33099452  0.65396014    -0.23400
C1569       C  0.93378101  0.17774950  0.82150280    -0.06200
C1570       C  0.93314997  0.20628995  0.79875702    -0.00300
C1571       C  0.89074749  0.19809126  0.78773251    -0.08800
C1572       C  0.85094510  0.16654774  0.80281815    -0.06200
C1573       C  0.85145921  0.14096260  0.82781311    -0.00300
C1574       C  0.89368673  0.14469124  0.83603319    -0.08700
C1575       C  0.89729816  0.11508335  0.86035150     0.61600
H1576       H  0.96642843  0.18409926  0.82959962     0.12300
H1577       H  0.81908950  0.16294084  0.79522274     0.12300
C1578       C  0.88603856  0.22285459  0.76066038     0.61900
F1579       F  0.94048334  0.12113455  0.86208607    -0.23300
F1580       F  0.86764757  0.06981660  0.85402657    -0.20600
F1581       F  0.88715245  0.12563883  0.88813181    -0.20300
F1582       F  0.92554399  0.24527417  0.74405364    -0.20400
F1583       F  0.87411762  0.25394710  0.77022393    -0.20700
F1584       F  0.85245973  0.19192386  0.74175250    -0.23400
C1585       C  0.43107983  0.52097865  0.96010779    -0.06200
C1586       C  0.43286495  0.48074743  0.96171709    -0.00300
C1587       C  0.47576114  0.48355174  0.96301020    -0.08800
C1588       C  0.51518598  0.52651249  0.96155885    -0.06200
C1589       C  0.51372475  0.56687696  0.95894796    -0.00300
C1590       C  0.47071208  0.56418005  0.95852847    -0.08700
C1591       C  0.46608135  0.60624140  0.95697809     0.61600
H1592       H  0.39805017  0.51814739  0.95957200     0.12300
H1593       H  0.54792898  0.52872713  0.96183044     0.12300
C1594       C  0.48045930  0.44170096  0.96678897     0.61900
F1595       F  0.42161223  0.59575970  0.96067989    -0.23300
F1596       F  0.48051254  0.62721246  0.92923235    -0.20600
F1597       F  0.49165628  0.63610646  0.97955713    -0.20300
F1598       F  0.46539659  0.41543929  0.94110933    -0.20400
F1599       F  0.45549248  0.41652996  0.99132219    -0.20700
F1600       F  0.52499440  0.45295532  0.97164184    -0.23400
C1601       C  0.16427761  0.32484752  0.53335895    -0.06200
C1602       C  0.15934905  0.29403805  0.01099940    -0.00300
C1603       C  0.11734342  0.25864764  0.99967018    -0.08800
C1604       C  0.07667791  0.25453195  0.01058349    -0.06200
C1605       C  0.08152520  0.28548908  0.53453335    -0.00300
C1606       C  0.12415305  0.31922922  0.54628158    -0.08700
C1607       C  0.12788428  0.34866625  0.57276775     0.61600
H1608       H  0.19679326  0.35174913  0.54131291     0.12300
H1609       H  0.04480737  0.22982840  0.00053312     0.12300
C1610       C  0.11489790  0.22699193  0.97489644     0.61900
F1611       F  0.17114236  0.37078576  0.58493136    -0.23300
F1612       F  0.09853074  0.32134522  0.59494611    -0.20600
F1613       F  0.11740170  0.38134417  0.56403517    -0.20300
F1614       F  0.13678700  0.20410324  0.98410845    -0.20400
F1615       F  0.13491687  0.25169526  0.94905213    -0.20700
F1616       F  0.07066778  0.19473039  0.96782038    -0.23400
C1617       C  0.16999564  0.40144132  0.88233071    -0.06200
C1618       C  0.18537189  0.39635234  0.85418468    -0.00300
C1619       C  0.22741438  0.39792341  0.85200710    -0.08800
C1620       C  0.25157371  0.40185000  0.87865699    -0.06200
C1621       C  0.23339818  0.40147512  0.90697638    -0.00300
C1622       C  0.19301821  0.40307774  0.90900688    -0.08700
C1623       C  0.17262107  0.40264870  0.93935267     0.61600
H1624       H  0.13737900  0.39945646  0.88349075     0.12300
H1625       H  0.28200984  0.39945230  0.87779690     0.12300
C1626       C  0.24408189  0.39052340  0.82218079     0.61900
F1627       F  0.13585466  0.40910878  0.93647898    -0.23300
F1628       F  0.20487553  0.43710421  0.95708455    -0.20600
F1629       F  0.15819140  0.36141265  0.95364724    -0.20300
F1630       F  0.24780963  0.42276606  0.80152502    -0.20400
F1631       F  0.21375902  0.34769156  0.81142402    -0.20700
F1632       F  0.28607719  0.39390766  0.82494264    -0.23400
C1633       C  0.37432118  0.33018075  0.55811074    -0.06200
C1634       C  0.35610560  0.35856304  0.55323113    -0.00300
C1635       C  0.34798434  0.37883212  0.57844346    -0.08800
C1636       C  0.35458104  0.36648629  0.60756302    -0.06200
C1637       C  0.36997102  0.33557366  0.61257861    -0.00300
C1638       C  0.38155969  0.31823094  0.58714997    -0.08700
C1639       C  0.40086284  0.28673017  0.58994678     0.61600
H1640       H  0.38159598  0.31597125  0.53870957     0.12300
H1641       H  0.34668825  0.38053658  0.62680432     0.12300
C1642       C  0.33353297  0.41418867  0.57503718     0.61900
F1643       F  0.41380913  0.27826922  0.56238543    -0.23300
F1644       F  0.36837347  0.24551159  0.60179890    -0.20600
F1645       F  0.43883281  0.30604357  0.60825504    -0.20300
F1646       F  0.28897318  0.39374672  0.56548097    -0.20400
F1647       F  0.36120382  0.44706908  0.55442206    -0.20700
F1648       F  0.33679850  0.43587083  0.60197272    -0.23400
C1649       C  0.29107820  0.28309769  0.81575942    -0.06200
C1650       C  0.33145992  0.31641657  0.80260098    -0.00300
C1651       C  0.36261888  0.35428823  0.81976562    -0.08800
C1652       C  0.35451399  0.35447371  0.85087357    -0.06200
C1653       C  0.31479327  0.31986715  0.86436746    -0.00300
C1654       C  0.28120915  0.28479182  0.84607857    -0.08700
C1655       C  0.23526130  0.24870363  0.85809750     0.61600
H1656       H  0.26689196  0.25552291  0.80171823     0.12300
H1657       H  0.37884310  0.38198748  0.86485783     0.12300
C1658       C  0.40399227  0.39382604  0.80546582     0.61900
F1659       F  0.21022863  0.21582455  0.83685735    -0.23300
F1660       F  0.21029313  0.26869899  0.86622345    -0.20600
F1661       F  0.24097886  0.22707607  0.88269688    -0.20300
F1662       F  0.39057465  0.41320784  0.78322442    -0.20400
F1663       F  0.43097303  0.37891074  0.79292257    -0.20700
F1664       F  0.42973144  0.42719360  0.82624016    -0.23400
C1665       C  0.33229254  0.16303358  0.95207489    -0.06200
C1666       C  0.30693214  0.13690584  0.92718815    -0.00300
C1667       C  0.26699105  0.13815954  0.91904968    -0.08800
C1668       C  0.25808784  0.16975924  0.93335021    -0.06200
C1669       C  0.28724921  0.20003409  0.95522128    -0.00300
C1670       C  0.32193876  0.19303593  0.96698793    -0.08700
C1671       C  0.34940823  0.21741512  0.99469993     0.61600
H1672       H  0.36131651  0.16086970  0.95975862     0.12300
H1673       H  0.23008321  0.17356525  0.92566721     0.12300
C1674       C  0.23443298  0.10817596  0.89464317     0.61900
F1675       F  0.35663628  0.18785961  0.01221409    -0.23300
F1676       F  0.32711251  0.23319347  0.01245429    -0.20600
F1677       F  0.39087567  0.25349612  0.98602912    -0.20300
F1678       F  0.22026142  0.06308656  0.90074650    -0.20400
F1679       F  0.25545227  0.12042454  0.86686701    -0.20700
F1680       F  0.19609961  0.11219118  0.89296308    -0.23400
loop_ 
_geom_bond_atom_site_label_1 
_geom_bond_atom_site_label_2 
_geom_bond_distance 
_geom_bond_site_symmetry_2 
_ccdc_geom_bond_type 
O1           C16   1.256       .  A
O1           Al9   1.867       .  S
C2           O12   1.267       .  A
C2            O3   1.277       .  A
C2          C794   1.486       .  S
O3         Al845   1.944   1_554  S
O4            C6   1.256       .  A
O4           Al5   1.893       .  S
Al5          O13   1.889       .  S
Al5          O15   1.920       .  S
Al5         O843   1.934       .  S
Al5          O14   1.779       .  S
C6           O19   1.261       .  A
C6          C829   1.503       .  S
O7           C17   1.261       .  A
O7           Al9   1.908       .  S
O8           C21   1.267       .  A
O8          Al18   1.920       .  S
Al9          O22   1.917       .  S
Al9          O19   1.919       .  S
Al9          O14   1.782       .  S
O10          C17   1.266       .  A
O10         Al18   1.932       .  S
O11          C20   1.258       .  A
O11         Al18   1.923       .  S
O12        Al858   1.878   1_554  S
O13          C20   1.249       .  A
O14         Al18   1.789       .  S
O15          C16   1.265       .  A
C16         C813   1.464       .  S
C17         C762   1.494       .  S
Al18        O852   1.892       .  S
C20         C746   1.502       .  S
C21          O22   1.265       .  A
C21         C781   1.473       .  S
O23          C38   1.264       .  A
O23         Al31   1.885       .  S
C24          O34   1.263       .  A
C24          O25   1.270       .  A
C24         C714   1.500       .  S
O25         Al27   1.923       .  S
O26          C28   1.254       .  A
O26         Al27   1.901   1_655  S
Al27         O35   1.887       .  S
Al27         O37   1.929       .  S
Al27         O36   1.785       .  S
C28          O41   1.256   1_655  A
C28         C730   1.502       .  S
O29          C39   1.267       .  A
O29         Al31   1.917       .  S
O30          C43   1.263       .  A
O30         Al40   1.924       .  S
Al31         O44   1.905       .  S
Al31         O41   1.903       .  S
Al31         O36   1.788       .  S
O32          C39   1.271       .  A
O32         Al40   1.942       .  S
O33          C42   1.258       .  A
O33         Al40   1.920       .  S
O34         Al40   1.889       .  S
O35          C42   1.252       .  A
O36         Al40   1.787       .  S
O37          C38   1.269       .  A
C38         C701   1.471       .  S
C39         C685   1.503       .  S
C42         C669   1.490       .  S
C43          O44   1.258       .  A
C43         C778   1.470       .  S
O45          C60   1.258       .  A
O45         Al53   1.875       .  S
C46          O56   1.265       .  A
C46          O47   1.273   1_545  A
C46         C650   1.490       .  S
O47         Al49   1.937       .  S
O48          C50   1.257       .  A
O48         Al49   1.899       .  S
Al49         O57   1.898   1_565  S
Al49         O59   1.927       .  S
Al49         O58   1.785   1_565  S
C50          O63   1.260       .  A
C50         C621   1.503       .  S
O51          C61   1.259       .  A
O51         Al53   1.910       .  S
O52          C65   1.265       .  A
O52         Al62   1.916       .  S
Al53         O66   1.927       .  S
Al53         O63   1.913   1_545  S
Al53         O58   1.784       .  S
O54          C61   1.265       .  A
O54         Al62   1.936       .  S
O55          C64   1.258       .  A
O55         Al62   1.925       .  S
O56         Al62   1.892       .  S
O57          C64   1.253       .  A
O58         Al62   1.795       .  S
O59          C60   1.266   1_565  A
C60         C634   1.481   1_545  S
C61         C826   1.505       .  S
C64         C586   1.510       .  S
C65          O66   1.267       .  A
C65         C602   1.479       .  S
O67          C82   1.259       .  A
O67         Al75   1.854       .  S
C68          O78   1.263       .  A
C68          O69   1.271       .  A
C68         C797   1.470       .  S
O69         Al71   1.926       .  S
O70          C72   1.254       .  A
O70         Al71   1.898       .  S
Al71         O79   1.890       .  S
Al71         O81   1.939       .  S
Al71         O80   1.779       .  S
C72          O85   1.261       .  A
C72         C682   1.508       .  S
O73          C83   1.264       .  A
O73         Al75   1.908       .  S
O74          C87   1.265       .  A
O74         Al84   1.919       .  S
Al75         O88   1.917       .  S
Al75         O85   1.924       .  S
Al75         O80   1.778       .  S
O76          C83   1.270       .  A
O76         Al84   1.944       .  S
O77          C86   1.260       .  A
O77         Al84   1.925       .  S
O78         Al84   1.884       .  S
O79          C86   1.252       .  A
O80         Al84   1.789       .  S
O81          C82   1.268       .  A
C82         C810   1.476       .  S
C83         C570   1.495       .  S
C86         C554   1.497       .  S
C87          O88   1.264       .  A
C87         C605   1.474       .  S
O89         C104   1.264       .  A
O89        Al937   1.866   1_554  S
C90         O100   1.272       .  A
C90          O91   1.271       .  A
C90         C474   1.474       .  S
O91         Al93   1.895       .  S
O92          C94   1.255       .  A
O92         Al93   1.897       .  S
Al93        O101   1.893       .  S
Al93        O943   1.921       .  S
Al93        O102   1.788       .  S
C94         O107   1.257       .  A
C94         C538   1.482       .  S
O95         C105   1.258       .  A
O95         Al97   1.907       .  S
O96         C109   1.261       .  A
O96        Al106   1.918       .  S
Al97        O107   1.911       .  S
Al97        O929   1.904       .  S
Al97        O950   1.861       .  S
Al97        O102   1.793       .  S
O98         C105   1.253       .  A
O98        Al106   1.887       .  S
O99         C108   1.248       .  A
O99        Al106   1.897       .  S
O100       Al106   1.928       .  S
O101        C108   1.252       .  A
O102       Al106   1.796       .  S
O103        C104   1.267   1_556  A
O103       Al933   1.920       .  S
C104        C490   1.470       .  S
C105        C506   1.502       .  S
C108        C749   1.498       .  S
C109        O950   1.255       .  A
C109       C1365   1.475       .  S
O110        C949   1.261       .  A
O110       Al937   1.912       .  S
O111        C126   1.256       .  A
O111       Al959   1.871       .  S
C112        O122   1.264       .  A
C112        O113   1.274       .  A
C112        C717   1.481       .  S
O113       Al115   1.938       .  S
O114        C116   1.255       .  A
O114       Al115   1.899   1_455  S
Al115       O123   1.900       .  S
Al115       O965   1.942   1_654  S
Al115       O124   1.778       .  S
C116        O129   1.258   1_455  A
C116        C765   1.503       .  S
O117        C127   1.265       .  A
O117       Al119   1.909       .  S
O118        C131   1.264       .  A
O118       Al128   1.919       .  S
Al119       O132   1.911       .  S
Al119       O129   1.913       .  S
Al119       O951   1.863   1_554  S
Al119       O124   1.781       .  S
O120        C127   1.266       .  A
O120       Al128   1.929       .  S
O121        C130   1.254       .  A
O121       Al128   1.900       .  S
O122       Al128   1.882       .  S
O123        C130   1.254       .  A
O124       Al128   1.782       .  S
O125        C126   1.272   1_455  A
O125       Al955   1.950   1_455  S
C126        C698   1.490       .  S
C127        C458   1.490       .  S
C130        C426   1.489       .  S
C131        O132   1.262       .  A
C131       C1282   1.467   1_554  S
O133        C148   1.266       .  A
O133       Al141   1.915       .  S
C134        O144   1.271       .  A
C134        O135   1.265   1_545  A
C134        C397   1.479       .  S
O135       Al137   1.891       .  S
O136        C138   1.257       .  A
O136       Al137   1.891       .  S
Al137       O145   1.886   1_565  S
Al137       O147   1.913   1_565  S
Al137       O146   1.789   1_565  S
C138        O151   1.258   1_565  A
C138        C509   1.490       .  S
O139        C149   1.257       .  A
O139       Al141   1.906       .  S
O140        C153   1.264       .  A
O140       Al150   1.932       .  S
Al141       O154   1.869       .  S
Al141       O151   1.922       .  S
Al141       O146   1.791       .  S
O142        C149   1.259       .  A
O142       Al150   1.900       .  S
O143        C152   1.257       .  A
O143       Al150   1.926       .  S
O144       Al150   1.935       .  S
O145        C152   1.253       .  A
O146       Al150   1.796       .  S
O147        C148   1.265       .  A
C148        C410   1.475   1_545  S
C149        C733   1.506       .  S
C152        C589   1.503       .  S
C153        O154   1.256       .  A
C153        C445   1.474       .  S
O155        C170   1.272       .  A
O155       Al163   1.916       .  S
C156        O166   1.277       .  A
C156        O157   1.270       .  A
C156        C394   1.488       .  S
O157       Al159   1.897       .  S
O158        C160   1.253       .  A
O158       Al159   1.895   1_545  S
Al159       O167   1.888       .  S
Al159       O169   1.912       .  S
Al159       O168   1.786       .  S
C160        O173   1.257   1_545  A
C160        C461   1.486       .  S
O161        C171   1.260       .  A
O161       Al163   1.918       .  S
O162        C175   1.262       .  A
O162       Al172   1.924       .  S
Al163       O176   1.867       .  S
Al163       O173   1.918       .  S
Al163       O168   1.787       .  S
O164        C171   1.257       .  A
O164       Al172   1.884       .  S
O165        C174   1.249       .  A
O165       Al172   1.905       .  S
O166       Al172   1.943       .  S
O167        C174   1.252       .  A
O168       Al172   1.789       .  S
O169        C170   1.270       .  A
C170        C413   1.486       .  S
C171        C378   1.505       .  S
C174        C362   1.499       .  S
C175        O176   1.253       .  A
C175        C522   1.471       .  S
O177        C192   1.264       .  A
O177       Al185   1.882       .  S
C178        O188   1.264       .  A
C178        O179   1.271       .  A
C178        C314   1.490       .  S
O179       Al181   1.925       .  S
O180        C182   1.256       .  A
O180       Al181   1.905   1_655  S
Al181       O189   1.891       .  S
Al181       O191   1.927       .  S
Al181       O190   1.779       .  S
C182        O195   1.260   1_655  A
C182        C349   1.503       .  S
O183        C193   1.266       .  A
O183       Al185   1.916       .  S
O184        C197   1.264       .  A
O184       Al194   1.923       .  S
Al185       O198   1.920       .  S
Al185       O195   1.911       .  S
Al185       O190   1.779       .  S
O186        C193   1.270       .  A
O186       Al194   1.941       .  S
O187        C196   1.258       .  A
O187       Al194   1.923       .  S
O188       Al194   1.891       .  S
O189        C196   1.256       .  A
O190       Al194   1.782       .  S
O191        C192   1.266       .  A
C192        C330   1.496       .  S
C193        C618   1.502       .  S
C196        C666   1.499       .  S
C197        O198   1.262       .  A
C197        C301   1.477       .  S
O199        C214   1.262       .  A
O199       Al207   1.875       .  S
C200        O210   1.267       .  A
C200        O201   1.272       .  A
C200        C653   1.485       .  S
O201       Al203   1.931       .  S
O202        C204   1.253       .  A
O202       Al203   1.893   1_545  S
Al203       O211   1.886       .  S
Al203       O213   1.932       .  S
Al203       O212   1.774       .  S
C204        O217   1.259   1_545  A
C204        C573   1.501       .  S
O205        C215   1.268       .  A
O205       Al207   1.920       .  S
O206        C219   1.267       .  A
O206       Al216   1.933       .  S
Al207       O220   1.918       .  S
Al207       O217   1.915       .  S
Al207       O212   1.785       .  S
O208        C215   1.269       .  A
O208       Al216   1.939       .  S
O209        C218   1.258       .  A
O209       Al216   1.922       .  S
O210       Al216   1.898       .  S
O211        C218   1.251       .  A
O212       Al216   1.785       .  S
O213        C214   1.268       .  A
C214        C637   1.472       .  S
C215        C282   1.501       .  S
C218        C365   1.493       .  S
C219        O220   1.263       .  A
C219        C298   1.478       .  S
O221        C236   1.254       .  A
O221       Al229   1.863       .  S
C222        O232   1.271       .  A
C222        O223   1.277       .  A
C222        C477   1.476       .  S
O223       Al225   1.936       .  S
O224        C226   1.255       .  A
O224       Al225   1.889       .  S
Al225       O233   1.893       .  S
Al225       O235   1.917       .  S
Al225       O234   1.787       .  S
C226        O239   1.257       .  A
C226        C381   1.496       .  S
O227        C237   1.255       .  A
O227       Al229   1.906       .  S
O228        C241   1.269       .  A
O228       Al238   1.913       .  S
Al229       O242   1.916       .  S
Al229       O239   1.904       .  S
Al229       O234   1.782       .  S
O230        C237   1.258       .  A
O230       Al238   1.925       .  S
O231        C240   1.249       .  A
O231       Al238   1.904       .  S
O232       Al238   1.892       .  S
O233        C240   1.250       .  A
O234       Al238   1.794       .  S
O235        C236   1.265       .  A
C236        C493   1.475       .  S
C237        C346   1.495       .  S
C240        C557   1.489       .  S
C241        O242   1.269       .  A
C241        C269   1.471       .  S
O243        C258   1.262       .  A
O243       Al251   1.903       .  S
C244        O254   1.266       .  A
C244        O245   1.273       .  A
C244        C317   1.496       .  S
O245      Al1087   1.934       .  S
O246        C248   1.259       .  A
O246       Al247   1.898   1_455  S
Al247       O255   1.901       .  S
Al247       O257   1.919   1_655  S
Al247      O1085   1.915       .  S
Al247       O256   1.778       .  S
C248        O261   1.261   1_455  A
C248        C285   1.500       .  S
O249        C259   1.266       .  A
O249       Al251   1.928       .  S
O250        C263   1.266       .  A
O250       Al260   1.919       .  S
Al251       O264   1.910       .  S
Al251       O261   1.926       .  S
Al251       O256   1.784       .  S
O252        C259   1.262       .  A
O252       Al260   1.912       .  S
O253        C262   1.255       .  A
O253       Al260   1.909       .  S
O254      Al1100   1.894       .  S
O255        C262   1.257       .  A
O256       Al260   1.787       .  S
O257        C258   1.264   1_455  A
C258        C333   1.477       .  S
C259        C541   1.497   1_554  S
Al260      O1094   1.895   1_554  S
C262        C429   1.473       .  S
C263        O264   1.265       .  A
C263        C266   1.471       .  S
C265        C266   1.405       .  A
C265        C270   1.410       .  A
C265        H272   1.084       .  S
C266        C267   1.413       .  A
C267        C268   1.406       .  A
C267        C274   1.517       .  S
C268        C269   1.403       .  A
C268        H273   1.084       .  S
C269        C270   1.409       .  A
C270        C271   1.512       .  S
C271        F275   1.380       .  S
C271        F276   1.383       .  S
C271        F277   1.384       .  S
C274        F278   1.384       .  S
C274        F279   1.382       .  S
C274        F280   1.384       .  S
C281        C282   1.409       .  A
C281        C286   1.414       .  A
C281        H288   1.083       .  S
C282        C283   1.423       .  A
C283        C284   1.406       .  A
C283        C290   1.517       .  S
C284        C285   1.405       .  A
C284        H289   1.083       .  S
C285        C286   1.421       .  A
C286        C287   1.518       .  S
C287        F291   1.385       .  S
C287        F292   1.380       .  S
C287        F293   1.383       .  S
C290        F294   1.382       .  S
C290        F295   1.383       .  S
C290        F296   1.385       .  S
C297        C298   1.404       .  A
C297        C302   1.405       .  A
C297        H304   1.083       .  S
C298        C299   1.413       .  A
C299        C300   1.412       .  A
C299        C306   1.516       .  S
C300        C301   1.406       .  A
C300        H305   1.084       .  S
C301        C302   1.414       .  A
C302        C303   1.517       .  S
C303        F307   1.384       .  S
C303        F308   1.384       .  S
C303        F309   1.383       .  S
C306        F310   1.384       .  S
C306        F311   1.383       .  S
C306        F312   1.381       .  S
C313        C314   1.405   1_655  A
C313        C318   1.407       .  A
C313        H320   1.083       .  S
C314        C315   1.420       .  A
C315        C316   1.407       .  A
C315        C322   1.521       .  S
C316        C317   1.408   1_455  A
C316        H321   1.082       .  S
C317        C318   1.424       .  A
C318        C319   1.520       .  S
C319        F323   1.385       .  S
C319        F324   1.380       .  S
C319        F325   1.384       .  S
C322        F326   1.382       .  S
C322        F327   1.384       .  S
C322        F328   1.385       .  S
C329        C330   1.408       .  A
C329        C334   1.399       .  A
C329        H336   1.082       .  S
C330        C331   1.427   1_455  A
C331        C332   1.414       .  A
C331        C338   1.519       .  S
C332        C333   1.401       .  A
C332        H337   1.083       .  S
C333        C334   1.411   1_655  A
C334        C335   1.513       .  S
C335        F339   1.384       .  S
C335        F340   1.374       .  S
C335        F341   1.382       .  S
C338        F342   1.384       .  S
C338        F343   1.383       .  S
C338        F344   1.382       .  S
C345        C346   1.407       .  A
C345        C350   1.413       .  A
C345        H352   1.083       .  S
C346        C347   1.419       .  A
C347        C348   1.409       .  A
C347        C354   1.521       .  S
C348        C349   1.410       .  A
C348        H353   1.082       .  S
C349        C350   1.423       .  A
C350        C351   1.519       .  S
C351        F355   1.385       .  S
C351        F356   1.384       .  S
C351        F357   1.382       .  S
C354        F358   1.383       .  S
C354        F359   1.383       .  S
C354        F360   1.385       .  S
C361        C362   1.406       .  A
C361        C366   1.401       .  A
C361        H368   1.081       .  S
C362        C363   1.424       .  A
C363        C364   1.415       .  A
C363        C370   1.520       .  S
C364        C365   1.408       .  A
C364        H369   1.083       .  S
C365        C366   1.422       .  A
C366        C367   1.523   1_565  S
C367        F371   1.378       .  S
C367        F372   1.383       .  S
C367        F373   1.385       .  S
C370        F374   1.383       .  S
C370        F375   1.384       .  S
C370        F376   1.385       .  S
C377        C378   1.411       .  A
C377        C382   1.405       .  A
C377        H384   1.084       .  S
C378        C379   1.425       .  A
C379        C380   1.415       .  A
C379        C386   1.519       .  S
C380        C381   1.408       .  A
C380        H385   1.083       .  S
C381        C382   1.416       .  A
C382        C383   1.517       .  S
C383        F387   1.384       .  S
C383        F388   1.383       .  S
C383        F389   1.383       .  S
C386        F390   1.384       .  S
C386        F391   1.382       .  S
C386        F392   1.385       .  S
C393        C394   1.405       .  A
C393        C398   1.408       .  A
C393        H400   1.083       .  S
C394        C395   1.422   1_565  A
C395        C396   1.409       .  A
C395        C402   1.518       .  S
C396        C397   1.401       .  A
C396        H401   1.084       .  S
C397        C398   1.415   1_545  A
C398        C399   1.516       .  S
C399        F403   1.384       .  S
C399        F404   1.382       .  S
C399        F405   1.382       .  S
C402        F406   1.380       .  S
C402        F407   1.384       .  S
C402        F408   1.385       .  S
C409        C410   1.406   1_545  A
C409       C1254   1.416       .  A
C409        H416   1.083       .  S
C410        C411   1.413       .  A
C411       C1252   1.397       .  A
C411        C418   1.518       .  S
C412        C413   1.405       .  A
C412       C1251   1.400   1_554  A
C412        H417   1.084       .  S
C413        C414   1.419   1_565  A
C414       C1249   1.414   1_554  A
C414        C415   1.516       .  S
C415        F419   1.384       .  S
C415        F420   1.383       .  S
C415        F421   1.383       .  S
C418        F422   1.376       .  S
C418        F423   1.383       .  S
C418        F424   1.384       .  S
C425        C426   1.410       .  A
C425        C430   1.407       .  A
C425        H432   1.082       .  S
C426        C427   1.421       .  A
C427        C428   1.409       .  A
C427       C1274   1.520   1_554  S
C428        C429   1.403       .  A
C428       H1273   1.084   1_554  S
C429        C430   1.408       .  A
C430        C431   1.517       .  S
C431        F435   1.384       .  S
C431        F436   1.384       .  S
C431        F437   1.383       .  S
H433       C1268   1.085       .  S
C434       C1267   1.517       .  S
C434        F438   1.384       .  S
C434        F439   1.382       .  S
C434        F440   1.384       .  S
C441        C442   1.403       .  A
C441        C446   1.408       .  A
C441        H448   1.084       .  S
C442        C971   1.470       .  S
C442        C443   1.409       .  A
C443        C444   1.407       .  A
C443       C1290   1.514       .  S
C444        C445   1.405       .  A
C444        H449   1.084       .  S
C445        C446   1.415       .  A
C446        C447   1.517       .  S
C447        F451   1.385       .  S
C447        F452   1.383       .  S
C447        F453   1.382       .  S
C450       C1283   1.516   1_554  S
C450        F454   1.383       .  S
C450        F455   1.383       .  S
C450        F456   1.381       .  S
C457        C458   1.406       .  A
C457        C462   1.412       .  A
C457        H464   1.083       .  S
C458        C459   1.418       .  A
C459        C460   1.404       .  A
C459        C466   1.517       .  S
C460        C461   1.403       .  A
C460        H465   1.081       .  S
C461        C462   1.420       .  A
C462        C463   1.517       .  S
C463        F467   1.385       .  S
C463        F468   1.381       .  S
C463        F469   1.383       .  S
C466        F470   1.383       .  S
C466        F471   1.383       .  S
C466        F472   1.385       .  S
C473        C474   1.399       .  A
C473        C478   1.402       .  A
C473        H480   1.084       .  S
C474        C475   1.417       .  A
C475        C476   1.409       .  A
C475        C482   1.517       .  S
C476        C477   1.403       .  A
C476        H481   1.083       .  S
C477        C478   1.417       .  A
C478        C479   1.517       .  S
C479        F483   1.385       .  S
C479        F484   1.384       .  S
C479        F485   1.378       .  S
C482        F486   1.383       .  S
C482        F487   1.382       .  S
C482        F488   1.385       .  S
C489        C490   1.398       .  A
C489        C494   1.393       .  A
C489        H496   1.084       .  S
C490        C491   1.416       .  A
C491        C492   1.411       .  A
C491        C498   1.517       .  S
C492        C493   1.406       .  A
C492        H497   1.083       .  S
C493        C494   1.420       .  A
C494        C495   1.521       .  S
C495        F499   1.385       .  S
C495        F500   1.382       .  S
C495        F501   1.380       .  S
C498        F502   1.383       .  S
C498        F503   1.383       .  S
C498        F504   1.385       .  S
C505        C506   1.412       .  A
C505        C510   1.414       .  A
C505        H512   1.082       .  S
C506        C507   1.426       .  A
C507        C508   1.405       .  A
C507        C514   1.521       .  S
C508        C509   1.403       .  A
C508        H513   1.084       .  S
C509        C510   1.417       .  A
C510        C511   1.518       .  S
C511        F515   1.385       .  S
C511        F516   1.380       .  S
C511        F517   1.382       .  S
C514        F518   1.383       .  S
C514        F519   1.384       .  S
C514        F520   1.385       .  S
C521        C522   1.407       .  A
C521        C526   1.413       .  A
C521        H528   1.083       .  S
C522        C523   1.410       .  A
C523        C524   1.404       .  A
C523        C530   1.518       .  S
C524        C525   1.404       .  A
C524        H529   1.080       .  S
C525        C949   1.477   1_554  S
C525        C526   1.411       .  A
C526       C1367   1.515   1_554  S
C527       C1366   1.517       .  S
C527        F531   1.384       .  S
C527        F532   1.383       .  S
C527        F533   1.382       .  S
C530        F534   1.383       .  S
C530        F535   1.383       .  S
C530        F536   1.382       .  S
C537        C542   1.413   1_556  A
C537       C1378   1.412       .  A
C537        H544   1.082       .  S
C538        C539   1.412       .  A
C538       C1377   1.406       .  A
C539        C540   1.401       .  A
C539        C546   1.515       .  S
C540       C1381   1.406       .  A
C540        H545   1.081       .  S
C541        C542   1.418   1_556  A
C541       C1380   1.409       .  A
C542        C543   1.518       .  S
C543        F547   1.383       .  S
C543        F548   1.385       .  S
C543        F549   1.383       .  S
C546        F550   1.384       .  S
C546        F551   1.382       .  S
C546        F552   1.384       .  S
C553        C554   1.408       .  A
C553        C558   1.412       .  A
C553        H560   1.083       .  S
C554        C555   1.426       .  A
C555        C556   1.407       .  A
C555        C562   1.521       .  S
C556        C557   1.401       .  A
C556        H561   1.083       .  S
C557        C558   1.419       .  A
C558        C559   1.518       .  S
C559        F563   1.385       .  S
C559        F564   1.382       .  S
C559        F565   1.383       .  S
C562        F566   1.379       .  S
C562        F567   1.383       .  S
C562        F568   1.385       .  S
C569        C570   1.406       .  A
C569        C574   1.412       .  A
C569        H576   1.083       .  S
C570        C571   1.421       .  A
C571        C572   1.410       .  A
C571        C578   1.520       .  S
C572        C573   1.408       .  A
C572        H577   1.082       .  S
C573        C574   1.423       .  A
C574        C575   1.517       .  S
C575        F579   1.385       .  S
C575        F580   1.383       .  S
C575        F581   1.383       .  S
C578        F582   1.382       .  S
C578        F583   1.383       .  S
C578        F584   1.384       .  S
C585        C586   1.415       .  A
C585        C590   1.418       .  A
C585        H592   1.082       .  S
C586        C587   1.427       .  A
C587        C588   1.407       .  A
C587        C594   1.523   1_545  S
C588        C589   1.406       .  A
C588        H593   1.080   1_545  S
C589        C590   1.419       .  A
C590        C591   1.519       .  S
C591        F595   1.384       .  S
C591        F596   1.383       .  S
C591        F597   1.384       .  S
C594        F598   1.382       .  S
C594        F599   1.383       .  S
C594        F600   1.385       .  S
C601        C602   1.401       .  A
C601        C606   1.409       .  A
C601        H608   1.085       .  S
C602        C603   1.419       .  A
C603        C604   1.404       .  A
C603        C610   1.512       .  S
C604        C605   1.397       .  A
C604        H609   1.085       .  S
C605        C606   1.419       .  A
C606        C607   1.515       .  S
C607        F611   1.383       .  S
C607        F612   1.382       .  S
C607        F613   1.380       .  S
C610        F614   1.381       .  S
C610        F615   1.381       .  S
C610        F616   1.383       .  S
C617        C618   1.409       .  A
C617        C622   1.410       .  A
C617        H624   1.084       .  S
C618        C619   1.424       .  A
C619        C620   1.414       .  A
C619        C626   1.520       .  S
C620        C621   1.407       .  A
C620        H625   1.081       .  S
C621        C622   1.417       .  A
C622        C623   1.515       .  S
C623        F627   1.385       .  S
C623        F628   1.384       .  S
C623        F629   1.382       .  S
C626        F630   1.383       .  S
C626        F631   1.383       .  S
C626        F632   1.385       .  S
C633        C634   1.405       .  A
C633        C638   1.410       .  A
C633        H640   1.081       .  S
C634        C635   1.421       .  A
C635        C636   1.398       .  A
C635        C642   1.517       .  S
C636        C637   1.396       .  A
C636        H641   1.084       .  S
C637        C638   1.414       .  A
C638        C639   1.512       .  S
C639        F643   1.385       .  S
C639        F644   1.380   1_565  S
C639        F645   1.383       .  S
C642        F646   1.383   1_565  S
C642        F647   1.376       .  S
C642        F648   1.384       .  S
C649        C650   1.407   1_565  A
C649       C1494   1.411       .  A
C649        H656   1.083       .  S
C650        C651   1.423       .  A
C651       C1492   1.407       .  A
C651        C658   1.519       .  S
C652        C653   1.403   1_545  A
C652       C1491   1.409   1_554  A
C652        H657   1.082       .  S
C653        C654   1.417       .  A
C654       C1489   1.410   1_554  A
C654        C655   1.520       .  S
C655        F659   1.385   1_554  S
C655        F660   1.380       .  S
C655        F661   1.383       .  S
C658        F662   1.384       .  S
C658        F663   1.384       .  S
C658        F664   1.380       .  S
C665        C666   1.406       .  A
C665        C670   1.405       .  A
C665        H672   1.082       .  S
C666        C667   1.424       .  A
C667        C668   1.415       .  A
C667        C674   1.518       .  S
C668        C669   1.404       .  A
C668        H673   1.083       .  S
C669        C670   1.420       .  A
C670        C671   1.521   1_455  S
C671        F675   1.385       .  S
C671        F676   1.382       .  S
C671        F677   1.382       .  S
C674        F678   1.383       .  S
C674        F679   1.384       .  S
C674        F680   1.385       .  S
C681        C682   1.410       .  A
C681        C686   1.414       .  A
C681        H688   1.082       .  S
C682        C683   1.424       .  A
C683        C684   1.411       .  A
C683        C690   1.518       .  S
C684        C685   1.407       .  A
C684        H689   1.082       .  S
C685        C686   1.423       .  A
C686        C687   1.519       .  S
C687        F691   1.385       .  S
C687        F692   1.383       .  S
C687        F693   1.383       .  S
C690        F694   1.382       .  S
C690        F695   1.383       .  S
C690        F696   1.385       .  S
C697        C698   1.408   1_455  A
C697        C702   1.413       .  A
C697        H704   1.082       .  S
C698        C699   1.429       .  A
C699        C700   1.400       .  A
C699        C706   1.522       .  S
C700        C701   1.394   1_655  A
C700        H705   1.084       .  S
C701        C702   1.412       .  A
C702        C703   1.516       .  S
C703        F707   1.384       .  S
C703        F708   1.383       .  S
C703        F709   1.382       .  S
C706        F710   1.383       .  S
C706        F711   1.379       .  S
C706        F712   1.385       .  S
C713        C714   1.410   1_655  A
C713        C718   1.407       .  A
C713        H720   1.082       .  S
C714        C715   1.428       .  A
C715        C716   1.407       .  A
C715        C722   1.520       .  S
C716        C717   1.399   1_455  A
C716        H721   1.080       .  S
C717        C718   1.416       .  A
C718        C719   1.520       .  S
C719        F723   1.385       .  S
C719        F724   1.381       .  S
C719        F725   1.383       .  S
C722        F726   1.382       .  S
C722        F727   1.383       .  S
C722        F728   1.382       .  S
C729        C730   1.409       .  A
C729        C734   1.411       .  A
C729        H736   1.082       .  S
C730        C731   1.420       .  A
C731        C732   1.411       .  A
C731        C738   1.518       .  S
C732        C733   1.410       .  A
C732        H737   1.083       .  S
C733        C734   1.426       .  A
C734        C735   1.521       .  S
C735        F739   1.385       .  S
C735        F740   1.382       .  S
C735        F741   1.383       .  S
C738        F742   1.384       .  S
C738        F743   1.383       .  S
C738        F744   1.385       .  S
C745        C746   1.410       .  A
C745        C750   1.413       .  A
C745        H752   1.082       .  S
C746        C747   1.427       .  A
C747        C748   1.406       .  A
C747        C754   1.524       .  S
C748        C749   1.406       .  A
C748        H753   1.082       .  S
C749        C750   1.422       .  A
C750        C751   1.520       .  S
C751        F755   1.385       .  S
C751        F756   1.383       .  S
C751        F757   1.383       .  S
C754        F758   1.384       .  S
C754        F759   1.383       .  S
C754        F760   1.385       .  S
C761        C766   1.409       .  A
C761       C1602   1.405       .  A
C761        H768   1.082       .  S
C762        C763   1.421       .  A
C762       C1601   1.405       .  A
C763        C764   1.410       .  A
C763        C770   1.521       .  S
C764       C1605   1.407       .  A
C764        H769   1.079       .  S
C765        C766   1.420       .  A
C765       C1604   1.408       .  A
C766        C767   1.515       .  S
C767        F771   1.385       .  S
C767        F772   1.383       .  S
C767        F773   1.383       .  S
C770        F774   1.382       .  S
C770        F775   1.382       .  S
C770        F776   1.385       .  S
C777        C778   1.402       .  A
C777        C782   1.405       .  A
C777        H784   1.082       .  S
C778        C779   1.413       .  A
C779        C780   1.410       .  A
C779        C786   1.517       .  S
C780        C781   1.405       .  A
C780        H785   1.084       .  S
C781        C782   1.414       .  A
C782        C783   1.518       .  S
C783        F787   1.385       .  S
C783        F788   1.382       .  S
C783        F789   1.382       .  S
C786        F790   1.383       .  S
C786        F791   1.383       .  S
C786        F792   1.384       .  S
C793        C794   1.408       .  A
C793        C798   1.411       .  A
C793        H800   1.083       .  S
C794        C795   1.424       .  A
C795        C796   1.400       .  A
C795        C802   1.519       .  S
C796        C797   1.394       .  A
C796        H801   1.083       .  S
C797        C798   1.414       .  A
C798        C799   1.517       .  S
C799        F803   1.384       .  S
C799        F804   1.383       .  S
C799        F805   1.383       .  S
C802        F806   1.383       .  S
C802        F807   1.381       .  S
C802        F808   1.385       .  S
C809        C810   1.404       .  A
C809        C814   1.394       .  A
C809        H816   1.083       .  S
C810        C811   1.417       .  A
C811        C812   1.410       .  A
C811        C818   1.513       .  S
C812        C813   1.401       .  A
C812        H817   1.083       .  S
C813        C814   1.411       .  A
C814        C815   1.517       .  S
C815        F819   1.385       .  S
C815        F820   1.381       .  S
C815        F821   1.380       .  S
C818        F822   1.382       .  S
C818        F823   1.382       .  S
C818        F824   1.384       .  S
C825        C826   1.408       .  A
C825        C830   1.407       .  A
C825        H832   1.083       .  S
C826        C827   1.427       .  A
C827        C828   1.416       .  A
C827        C834   1.519       .  S
C828        C829   1.407       .  A
C828        H833   1.082       .  S
C829        C830   1.417       .  A
C830        C831   1.515       .  S
C831        F835   1.385       .  S
C831        F836   1.383       .  S
C831        F837   1.383       .  S
C834        F838   1.383       .  S
C834        F839   1.383       .  S
C834        F840   1.385       .  S
O841        C856   1.255       .  A
O841       Al849   1.866       .  S
C842        O852   1.266       .  A
C842        O843   1.274       .  A
C842       C1634   1.492       .  S
O844        C846   1.251       .  A
O844       Al845   1.876       .  S
Al845       O853   1.885       .  S
Al845       O855   1.932       .  S
Al845       O854   1.781       .  S
C846        O859   1.259       .  A
C846       C1669   1.497       .  S
O847        C857   1.261       .  A
O847       Al849   1.911       .  S
O848        C861   1.268       .  A
O848       Al858   1.913       .  S
Al849       O862   1.911       .  S
Al849       O859   1.918       .  S
Al849       O854   1.783       .  S
O850        C857   1.264       .  A
O850       Al858   1.931       .  S
O851        C860   1.253       .  A
O851       Al858   1.916       .  S
O853        C860   1.247       .  A
O854       Al858   1.791       .  S
O855        C856   1.269       .  A
C856       C1653   1.483       .  S
C857       C1602   1.498   1_556  S
C860       C1586   1.488       .  S
C861        O862   1.266       .  A
C861       C1621   1.464       .  S
O863        C878   1.268       .  A
O863       Al871   1.898       .  S
C864        O874   1.274       .  A
C864        O865   1.268       .  A
C864       C1554   1.481       .  S
O865       Al867   1.883       .  S
O866        C868   1.256       .  A
O866       Al867   1.905   1_655  S
Al867       O875   1.899       .  S
Al867       O877   1.911       .  S
Al867       O876   1.796       .  S
C868        O881   1.260   1_655  A
C868       C1570   1.490       .  S
O869        C879   1.257       .  A
O869       Al871   1.908       .  S
O870        C883   1.262       .  A
O870       Al880   1.920       .  S
Al871       O884   1.869       .  S
Al871       O881   1.919       .  S
Al871       O876   1.788       .  S
O872        C879   1.259       .  A
O872       Al880   1.900       .  S
O873        C882   1.252       .  A
O873       Al880   1.912       .  S
O874       Al880   1.936       .  S
O875        C882   1.250       .  A
O876       Al880   1.795       .  S
O877        C878   1.268       .  A
C878       C1541   1.478       .  S
C879       C1525   1.509       .  S
C882       C1509   1.481       .  S
C883        O884   1.255       .  A
C883       C1618   1.471       .  S
O885        C900   1.260   1_545  A
O885       Al893   1.902       .  S
C886        O896   1.270       .  A
C886        O887   1.265   1_545  A
C886       C1490   1.493       .  S
O887       Al889   1.892       .  S
O888        C890   1.257       .  A
O888       Al889   1.889       .  S
Al889       O897   1.888   1_565  S
Al889       O899   1.921       .  S
Al889       O898   1.793   1_565  S
C890        O903   1.262       .  A
C890       C1461   1.486       .  S
O891        C901   1.254       .  A
O891       Al893   1.900       .  S
O892        C905   1.266       .  A
O892       Al902   1.929       .  S
Al893       O906   1.880       .  S
Al893       O903   1.922   1_545  S
Al893       O898   1.797       .  S
O894        C901   1.258       .  A
O894       Al902   1.908       .  S
O895        C904   1.256       .  A
O895       Al902   1.916       .  S
O896       Al902   1.932       .  S
O897        C904   1.250       .  A
O898       Al902   1.804       .  S
O899        C900   1.265       .  A
C900       C1474   1.485       .  S
C901       C1666   1.509       .  S
C904       C1426   1.496       .  S
C905        O906   1.259       .  A
C905       C1442   1.478       .  S
O907        C922   1.260       .  A
O907       Al915   1.876       .  S
C908        O918   1.265       .  A
C908        O909   1.272       .  A
C908       C1637   1.500       .  S
O909       Al911   1.930       .  S
O910        C912   1.259       .  A
O910       Al911   1.903       .  S
Al911       O919   1.905       .  S
Al911       O921   1.921       .  S
Al911       O920   1.788       .  S
C912        O925   1.260       .  A
C912       C1522   1.503       .  S
O913        C923   1.263       .  A
O913       Al915   1.922       .  S
O914        C927   1.268       .  A
O914       Al924   1.925       .  S
Al915       O928   1.905       .  S
Al915       O925   1.904       .  S
Al915       O920   1.786       .  S
O916        C923   1.264       .  A
O916       Al924   1.929       .  S
O917        C926   1.258       .  A
O917       Al924   1.929       .  S
O918       Al924   1.897       .  S
O919        C926   1.256       .  A
O920       Al924   1.790       .  S
O921        C922   1.263       .  A
C922       C1650   1.475       .  S
C923       C1410   1.501       .  S
C926       C1394   1.494       .  S
C927        O928   1.263       .  A
C927       C1445   1.474       .  S
O929        C944   1.269       .  A
C930        O940   1.266       .  A
C930        O931   1.271       .  A
C930       C1314   1.474       .  S
O931       Al933   1.918       .  S
O932        C934   1.256       .  A
O932       Al933   1.911       .  S
Al933       O941   1.894       .  S
Al933       O942   1.785       .  S
C934        O947   1.252       .  A
C934       C1378   1.502       .  S
O935        C945   1.264       .  A
O935       Al937   1.909       .  S
O936        C949   1.263       .  A
O936       Al946   1.929       .  S
Al937       O947   1.890       .  S
Al937       O942   1.786       .  S
O938        C945   1.266       .  A
O938       Al946   1.929       .  S
O939        C948   1.250       .  A
O939       Al946   1.895       .  S
O940       Al946   1.894       .  S
O941        C948   1.254       .  A
O942       Al946   1.794       .  S
O943        C944   1.271       .  A
C944       C1330   1.485       .  S
C945       C1346   1.493       .  S
C948       C1589   1.496       .  S
O951        C966   1.256       .  A
C952        O962   1.265       .  A
C952        O953   1.277   1_655  A
C952       C1557   1.484       .  S
O953       Al955   1.955   1_455  S
O954        C956   1.255       .  A
O954       Al955   1.899   1_455  S
Al955       O963   1.911       .  S
Al955       O964   1.778       .  S
C956        O969   1.261       .  A
C956       C1605   1.506       .  S
O957        C967   1.264       .  A
O957       Al959   1.914       .  S
O958        C971   1.265       .  A
O958       Al968   1.915       .  S
Al959       O972   1.920       .  S
Al959       O969   1.918   1_655  S
Al959       O964   1.780       .  S
O960        C967   1.264       .  A
O960       Al968   1.928       .  S
O961        C970   1.255       .  A
O961       Al968   1.905       .  S
O962       Al968   1.884       .  S
O963        C970   1.255       .  A
O964       Al968   1.786       .  S
O965        C966   1.271   1_455  A
C966       C1538   1.484       .  S
C967       C1298   1.491       .  S
C970       C1266   1.487       .  S
C971        O972   1.266       .  A
O973        C988   1.268       .  A
O973       Al981   1.931       .  S
C974        O984   1.272       .  A
C974        O975   1.264   1_545  A
C974       C1237   1.474       .  S
O975       Al977   1.888       .  S
O976        C978   1.259       .  A
O976       Al977   1.896       .  S
Al977       O985   1.893   1_565  S
Al977       O987   1.910   1_565  S
Al977       O986   1.787   1_565  S
C978        O991   1.260   1_565  A
C978       C1349   1.487       .  S
O979        C989   1.260       .  A
O979       Al981   1.921       .  S
O980        C993   1.265       .  A
O980       Al990   1.933       .  S
Al981       O994   1.866       .  S
Al981       O991   1.921       .  S
Al981       O986   1.790       .  S
O982        C989   1.257       .  A
O982       Al990   1.896       .  S
O983        C992   1.253       .  A
O983       Al990   1.911       .  S
O984       Al990   1.937       .  S
O985        C992   1.254       .  A
O986       Al990   1.795       .  S
O987        C988   1.265       .  A
C988       C1250   1.478   1_545  S
C989       C1573   1.510       .  S
C992       C1429   1.495       .  S
C993        O994   1.256       .  A
C993       C1285   1.475       .  S
O995       C1010   1.271       .  A
O995      Al1003   1.913       .  S
C996       O1006   1.275       .  A
C996        O997   1.269       .  A
C996       C1234   1.479       .  S
O997       Al999   1.894       .  S
O998       C1000   1.256       .  A
O998       Al999   1.904   1_545  S
Al999      O1007   1.888       .  S
Al999      O1009   1.916       .  S
Al999      O1008   1.783       .  S
C1000      O1013   1.257   1_545  A
C1000      C1301   1.486       .  S
O1001      C1011   1.260       .  A
O1001     Al1003   1.911       .  S
O1002      C1015   1.263       .  A
O1002     Al1012   1.930       .  S
Al1003     O1016   1.861       .  S
Al1003     O1013   1.913       .  S
Al1003     O1008   1.780       .  S
O1004      C1011   1.260       .  A
O1004     Al1012   1.896       .  S
O1005      C1014   1.255       .  A
O1005     Al1012   1.919       .  S
O1006     Al1012   1.941       .  S
O1007      C1014   1.253       .  A
O1008     Al1012   1.788       .  S
O1009      C1010   1.269       .  A
C1010      C1253   1.486       .  S
C1011      C1218   1.504       .  S
C1014      C1202   1.500       .  S
C1015      O1016   1.252       .  A
C1015      C1362   1.469       .  S
O1017      C1032   1.261       .  A
O1017     Al1025   1.870       .  S
C1018      O1028   1.263       .  A
C1018      O1019   1.274       .  A
C1018      C1154   1.495       .  S
O1019     Al1021   1.933       .  S
O1020      C1022   1.256       .  A
O1020     Al1021   1.903   1_655  S
Al1021     O1029   1.907       .  S
Al1021     O1031   1.924       .  S
Al1021     O1030   1.777       .  S
C1022      O1035   1.261   1_655  A
C1022      C1189   1.507       .  S
O1023      C1033   1.264       .  A
O1023     Al1025   1.922       .  S
O1024      C1037   1.264       .  A
O1024     Al1034   1.915       .  S
Al1025     O1038   1.928       .  S
Al1025     O1035   1.917       .  S
Al1025     O1030   1.780       .  S
O1026      C1033   1.267       .  A
O1026     Al1034   1.924       .  S
O1027      C1036   1.254       .  A
O1027     Al1034   1.911       .  S
O1028     Al1034   1.883       .  S
O1029      C1036   1.256       .  A
O1030     Al1034   1.782       .  S
O1031      C1032   1.266       .  A
C1032      C1170   1.471       .  S
C1033      C1458   1.500       .  S
C1036      C1506   1.492       .  S
C1037      O1038   1.267       .  A
C1037      C1141   1.474       .  S
O1039      C1054   1.263       .  A
O1039     Al1047   1.875       .  S
C1040      O1050   1.264       .  A
C1040      O1041   1.273       .  A
C1040      C1493   1.478       .  S
O1041     Al1043   1.936       .  S
O1042      C1044   1.250       .  A
O1042     Al1043   1.889   1_545  S
Al1043     O1051   1.886       .  S
Al1043     O1053   1.944       .  S
Al1043     O1052   1.772       .  S
C1044      O1057   1.259   1_545  A
C1044      C1413   1.505       .  S
O1045      C1055   1.271       .  A
O1045     Al1047   1.926       .  S
O1046      C1059   1.264       .  A
O1046     Al1056   1.922       .  S
Al1047     O1060   1.922       .  S
Al1047     O1057   1.927       .  S
Al1047     O1052   1.787       .  S
O1048      C1055   1.266       .  A
O1048     Al1056   1.924       .  S
O1049      C1058   1.254       .  A
O1049     Al1056   1.906       .  S
O1050     Al1056   1.889       .  S
O1051      C1058   1.250       .  A
O1052     Al1056   1.786       .  S
O1053      C1054   1.273       .  A
C1054      C1477   1.490       .  S
C1055      C1122   1.498       .  S
C1058      C1205   1.489       .  S
C1059      O1060   1.263       .  A
C1059      C1138   1.473       .  S
O1061      C1076   1.255       .  A
O1061     Al1069   1.866       .  S
C1062      O1072   1.268       .  A
C1062      O1063   1.277       .  A
C1062      C1317   1.491       .  S
O1063     Al1065   1.947       .  S
O1064      C1066   1.254       .  A
O1064     Al1065   1.889       .  S
Al1065     O1073   1.911       .  S
Al1065     O1075   1.941       .  S
Al1065     O1074   1.788       .  S
C1066      O1079   1.258       .  A
C1066      C1221   1.497       .  S
O1067      C1077   1.261       .  A
O1067     Al1069   1.916       .  S
O1068      C1081   1.270       .  A
O1068     Al1078   1.926       .  S
Al1069     O1082   1.912       .  S
Al1069     O1079   1.909       .  S
Al1069     O1074   1.782       .  S
O1070      C1077   1.264       .  A
O1070     Al1078   1.936       .  S
O1071      C1080   1.254       .  A
O1071     Al1078   1.918       .  S
O1072     Al1078   1.887       .  S
O1073      C1080   1.254       .  A
O1074     Al1078   1.787       .  S
O1075      C1076   1.270       .  A
C1076      C1333   1.494       .  S
C1077      C1186   1.503       .  S
C1080      C1397   1.495       .  S
C1081      O1082   1.265       .  A
C1081      C1109   1.473       .  S
O1083      C1098   1.257       .  A
O1083     Al1091   1.877       .  S
C1084      O1094   1.264       .  A
C1084      O1085   1.268   1_556  A
C1084      C1157   1.483       .  S
O1086      C1088   1.259       .  A
O1086     Al1087   1.895   1_455  S
Al1087     O1095   1.901       .  S
Al1087     O1097   1.936   1_655  S
Al1087     O1096   1.776       .  S
C1088      O1101   1.258       .  A
C1088      C1125   1.499       .  S
O1089      C1099   1.262       .  A
O1089     Al1091   1.913       .  S
O1090      C1103   1.267       .  A
O1090     Al1100   1.921       .  S
Al1091     O1104   1.922       .  S
Al1091     O1101   1.917   1_655  S
Al1091     O1096   1.782       .  S
O1092      C1099   1.266       .  A
O1092     Al1100   1.927       .  S
O1093      C1102   1.256       .  A
O1093     Al1100   1.914       .  S
O1095      C1102   1.256       .  A
O1096     Al1100   1.782       .  S
O1097      C1098   1.268   1_455  A
C1098      C1173   1.478   1_655  S
C1099      C1381   1.495       .  S
C1102      C1269   1.482       .  S
C1103      O1104   1.266       .  A
C1103      C1106   1.475       .  S
C1105      C1106   1.404       .  A
C1105      C1110   1.408       .  A
C1105      H1112   1.084       .  S
C1106      C1107   1.412       .  A
C1107      C1108   1.409       .  A
C1107      C1114   1.515       .  S
C1108      C1109   1.404       .  A
C1108      H1113   1.084       .  S
C1109      C1110   1.414       .  A
C1110      C1111   1.518       .  S
C1111      F1115   1.385       .  S
C1111      F1116   1.383       .  S
C1111      F1117   1.383       .  S
C1114      F1118   1.383       .  S
C1114      F1119   1.383       .  S
C1114      F1120   1.385       .  S
C1121      C1122   1.407       .  A
C1121      C1126   1.414       .  A
C1121      H1128   1.083       .  S
C1122      C1123   1.425       .  A
C1123      C1124   1.405       .  A
C1123      C1130   1.521       .  S
C1124      C1125   1.405       .  A
C1124      H1129   1.083       .  S
C1125      C1126   1.422       .  A
C1126      C1127   1.520       .  S
C1127      F1131   1.385       .  S
C1127      F1132   1.379       .  S
C1127      F1133   1.383       .  S
C1130      F1134   1.383       .  S
C1130      F1135   1.383       .  S
C1130      F1136   1.385       .  S
C1137      C1138   1.404       .  A
C1137      C1142   1.408       .  A
C1137      H1144   1.084       .  S
C1138      C1139   1.412       .  A
C1139      C1140   1.408       .  A
C1139      C1146   1.515       .  S
C1140      C1141   1.404       .  A
C1140      H1145   1.084       .  S
C1141      C1142   1.411       .  A
C1142      C1143   1.515       .  S
C1143      F1147   1.384       .  S
C1143      F1148   1.383       .  S
C1143      F1149   1.381       .  S
C1146      F1150   1.385       .  S
C1146      F1151   1.384       .  S
C1146      F1152   1.383       .  S
C1153      C1154   1.409   1_655  A
C1153      C1158   1.407       .  A
C1153      H1160   1.082       .  S
C1154      C1155   1.427       .  A
C1155      C1156   1.403       .  A
C1155      C1162   1.520       .  S
C1156      C1157   1.402   1_455  A
C1156      H1161   1.083       .  S
C1157      C1158   1.417       .  A
C1158      C1159   1.519       .  S
C1159      F1163   1.385       .  S
C1159      F1164   1.382       .  S
C1159      F1165   1.384       .  S
C1162      F1166   1.380       .  S
C1162      F1167   1.383       .  S
C1162      F1168   1.386       .  S
C1169      C1170   1.397       .  A
C1169      C1174   1.395       .  A
C1169      H1176   1.084       .  S
C1170      C1171   1.415       .  A
C1171      C1172   1.412       .  A
C1171      C1178   1.514       .  S
C1172      C1173   1.405       .  A
C1172      H1177   1.081   1_455  S
C1173      C1174   1.418       .  A
C1174      C1175   1.515       .  S
C1175      F1179   1.385       .  S
C1175      F1180   1.381   1_455  S
C1175      F1181   1.380       .  S
C1178      F1182   1.382   1_455  S
C1178      F1183   1.383       .  S
C1178      F1184   1.384       .  S
C1185      C1186   1.407       .  A
C1185      C1190   1.412       .  A
C1185      H1192   1.081       .  S
C1186      C1187   1.423       .  A
C1187      C1188   1.414       .  A
C1187      C1194   1.521       .  S
C1188      C1189   1.411       .  A
C1188      H1193   1.082       .  S
C1189      C1190   1.424       .  A
C1190      C1191   1.520       .  S
C1191      F1195   1.385       .  S
C1191      F1196   1.384       .  S
C1191      F1197   1.383       .  S
C1194      F1198   1.383       .  S
C1194      F1199   1.382       .  S
C1194      F1200   1.385       .  S
C1201      C1202   1.409       .  A
C1201      C1206   1.401       .  A
C1201      H1208   1.081       .  S
C1202      C1203   1.424       .  A
C1203      C1204   1.415       .  A
C1203      C1210   1.519       .  S
C1204      C1205   1.407       .  A
C1204      H1209   1.083       .  S
C1205      C1206   1.419       .  A
C1206      C1207   1.523   1_565  S
C1207      F1211   1.382       .  S
C1207      F1212   1.382       .  S
C1207      F1213   1.385       .  S
C1210      F1214   1.383       .  S
C1210      F1215   1.383       .  S
C1210      F1216   1.385       .  S
C1217      C1218   1.410       .  A
C1217      C1222   1.408       .  A
C1217      H1224   1.083       .  S
C1218      C1219   1.426       .  A
C1219      C1220   1.412       .  A
C1219      C1226   1.520       .  S
C1220      C1221   1.407       .  A
C1220      H1225   1.082       .  S
C1221      C1222   1.418       .  A
C1222      C1223   1.518       .  S
C1223      F1227   1.385       .  S
C1223      F1228   1.384       .  S
C1223      F1229   1.383       .  S
C1226      F1230   1.384       .  S
C1226      F1231   1.382       .  S
C1226      F1232   1.385       .  S
C1233      C1234   1.404       .  A
C1233      C1238   1.408       .  A
C1233      H1240   1.083       .  S
C1234      C1235   1.418   1_565  A
C1235      C1236   1.407       .  A
C1235      C1242   1.519       .  S
C1236      C1237   1.400       .  A
C1236      H1241   1.084       .  S
C1237      C1238   1.415   1_545  A
C1238      C1239   1.516       .  S
C1239      F1243   1.385       .  S
C1239      F1244   1.382   1_565  S
C1239      F1245   1.383       .  S
C1242      F1246   1.381       .  S
C1242      F1247   1.384   1_545  S
C1242      F1248   1.385       .  S
C1249      C1250   1.404   1_545  A
C1249      H1256   1.083       .  S
C1250      C1251   1.414       .  A
C1251      C1258   1.516       .  S
C1252      C1253   1.404       .  A
C1252      H1257   1.083       .  S
C1253      C1254   1.419   1_565  A
C1254      C1255   1.516       .  S
C1255      F1259   1.384       .  S
C1255      F1260   1.383       .  S
C1255      F1261   1.383       .  S
C1258      F1262   1.375       .  S
C1258      F1263   1.383       .  S
C1258      F1264   1.385       .  S
C1265      C1266   1.401       .  A
C1265      C1270   1.403       .  A
C1265      H1272   1.087       .  S
C1266      C1267   1.416       .  A
C1267      C1268   1.412       .  A
C1268      C1269   1.408       .  A
C1269      C1270   1.413       .  A
C1270      C1271   1.518       .  S
C1271      F1275   1.384       .  S
C1271      F1276   1.383       .  S
C1271      F1277   1.382       .  S
C1274      F1278   1.384       .  S
C1274      F1279   1.382   1_655  S
C1274      F1280   1.385       .  S
C1281      C1282   1.406       .  A
C1281      C1286   1.411       .  A
C1281      H1288   1.084       .  S
C1282      C1283   1.411       .  A
C1283      C1284   1.401       .  A
C1284      C1285   1.404       .  A
C1284      H1289   1.085       .  S
C1285      C1286   1.414       .  A
C1286      C1287   1.517       .  S
C1287      F1291   1.385       .  S
C1287      F1292   1.383       .  S
C1287      F1293   1.384       .  S
C1290      F1294   1.383       .  S
C1290      F1295   1.383       .  S
C1290      F1296   1.382       .  S
C1297      C1298   1.406       .  A
C1297      C1302   1.413       .  A
C1297      H1304   1.083       .  S
C1298      C1299   1.420       .  A
C1299      C1300   1.404       .  A
C1299      C1306   1.516       .  S
C1300      C1301   1.402       .  A
C1300      H1305   1.084       .  S
C1301      C1302   1.421       .  A
C1302      C1303   1.518       .  S
C1303      F1307   1.385       .  S
C1303      F1308   1.381       .  S
C1303      F1309   1.383       .  S
C1306      F1310   1.383       .  S
C1306      F1311   1.382       .  S
C1306      F1312   1.385       .  S
C1313      C1314   1.396       .  A
C1313      C1318   1.403       .  A
C1313      H1320   1.083       .  S
C1314      C1315   1.414       .  A
C1315      C1316   1.412       .  A
C1315      C1322   1.517       .  S
C1316      C1317   1.409       .  A
C1316      H1321   1.082       .  S
C1317      C1318   1.424       .  A
C1318      C1319   1.519       .  S
C1319      F1323   1.385       .  S
C1319      F1324   1.384       .  S
C1319      F1325   1.381       .  S
C1322      F1326   1.383       .  S
C1322      F1327   1.384       .  S
C1322      F1328   1.384       .  S
C1329      C1330   1.401       .  A
C1329      C1334   1.400       .  A
C1329      H1336   1.083       .  S
C1330      C1331   1.416       .  A
C1331      C1332   1.415       .  A
C1331      C1338   1.517       .  S
C1332      C1333   1.410       .  A
C1332      H1337   1.083       .  S
C1333      C1334   1.428       .  A
C1334      C1335   1.526       .  S
C1335      F1339   1.384       .  S
C1335      F1340   1.384       .  S
C1335      F1341   1.384       .  S
C1338      F1342   1.383       .  S
C1338      F1343   1.383       .  S
C1338      F1344   1.384       .  S
C1345      C1346   1.409       .  A
C1345      C1350   1.413       .  A
C1345      H1352   1.082       .  S
C1346      C1347   1.421       .  A
C1347      C1348   1.403       .  A
C1347      C1354   1.519       .  S
C1348      C1349   1.403       .  A
C1348      H1353   1.084       .  S
C1349      C1350   1.419       .  A
C1350      C1351   1.519       .  S
C1351      F1355   1.385       .  S
C1351      F1356   1.380       .  S
C1351      F1357   1.382       .  S
C1354      F1358   1.383       .  S
C1354      F1359   1.382       .  S
C1354      F1360   1.385       .  S
C1361      C1362   1.408       .  A
C1361      C1366   1.411       .  A
C1361      H1368   1.083       .  S
C1362      C1363   1.412       .  A
C1363      C1364   1.400       .  A
C1363      C1370   1.518       .  S
C1364      C1365   1.404       .  A
C1364      H1369   1.084       .  S
C1365      C1366   1.412       .  A
C1367      F1371   1.384       .  S
C1367      F1372   1.383       .  S
C1367      F1373   1.382       .  S
C1370      F1374   1.382       .  S
C1370      F1375   1.380       .  S
C1370      F1376   1.385       .  S
C1377      C1382   1.416       .  A
C1377      H1384   1.083       .  S
C1378      C1379   1.417       .  A
C1379      C1380   1.409       .  A
C1379      C1386   1.515       .  S
C1380      H1385   1.084       .  S
C1381      C1382   1.424       .  A
C1382      C1383   1.518       .  S
C1383      F1387   1.383       .  S
C1383      F1388   1.385       .  S
C1383      F1389   1.383       .  S
C1386      F1390   1.383       .  S
C1386      F1391   1.382       .  S
C1386      F1392   1.385       .  S
C1393      C1394   1.402       .  A
C1393      C1398   1.411       .  A
C1393      H1400   1.082       .  S
C1394      C1395   1.423       .  A
C1395      C1396   1.415       .  A
C1395      C1402   1.518       .  S
C1396      C1397   1.404       .  A
C1396      H1401   1.083       .  S
C1397      C1398   1.422       .  A
C1398      C1399   1.517       .  S
C1399      F1403   1.385       .  S
C1399      F1404   1.381       .  S
C1399      F1405   1.382       .  S
C1402      F1406   1.382       .  S
C1402      F1407   1.382       .  S
C1402      F1408   1.385       .  S
C1409      C1410   1.405       .  A
C1409      C1414   1.411       .  A
C1409      H1416   1.081       .  S
C1410      C1411   1.422       .  A
C1411      C1412   1.415       .  A
C1411      C1418   1.519       .  S
C1412      C1413   1.410       .  A
C1412      H1417   1.082       .  S
C1413      C1414   1.425       .  A
C1414      C1415   1.519       .  S
C1415      F1419   1.385       .  S
C1415      F1420   1.382       .  S
C1415      F1421   1.383       .  S
C1418      F1422   1.382       .  S
C1418      F1423   1.383       .  S
C1418      F1424   1.385       .  S
C1425      C1426   1.409       .  A
C1425      C1430   1.418       .  A
C1425      H1432   1.083       .  S
C1426      C1427   1.421       .  A
C1427      C1428   1.401       .  A
C1427      C1434   1.519   1_545  S
C1428      C1429   1.403       .  A
C1428      H1433   1.081       .  S
C1429      C1430   1.422       .  A
C1430      C1431   1.518       .  S
C1431      F1435   1.384       .  S
C1431      F1436   1.383       .  S
C1431      F1437   1.384       .  S
C1434      F1438   1.379   1_565  S
C1434      F1439   1.382       .  S
C1434      F1440   1.385       .  S
C1441      C1442   1.399       .  A
C1441      C1446   1.407       .  A
C1441      H1448   1.085       .  S
C1442      C1443   1.419       .  A
C1443      C1444   1.404       .  A
C1443      C1450   1.513       .  S
C1444      C1445   1.399       .  A
C1444      H1449   1.085       .  S
C1445      C1446   1.419       .  A
C1446      C1447   1.511       .  S
C1447      F1451   1.383       .  S
C1447      F1452   1.381       .  S
C1447      F1453   1.381       .  S
C1450      F1454   1.382       .  S
C1450      F1455   1.383       .  S
C1450      F1456   1.384       .  S
C1457      C1458   1.408       .  A
C1457      C1462   1.398       .  A
C1457      H1464   1.083       .  S
C1458      C1459   1.426       .  A
C1459      C1460   1.418       .  A
C1459      C1466   1.516       .  S
C1460      C1461   1.406       .  A
C1460      H1465   1.083       .  S
C1461      C1462   1.413       .  A
C1462      C1463   1.516       .  S
C1463      F1467   1.384       .  S
C1463      F1468   1.384       .  S
C1463      F1469   1.383       .  S
C1466      F1470   1.383       .  S
C1466      F1471   1.382       .  S
C1466      F1472   1.385       .  S
C1473      C1474   1.403       .  A
C1473      C1478   1.412       .  A
C1473      H1480   1.078   1_565  S
C1474      C1475   1.417       .  A
C1475      C1476   1.400       .  A
C1475      C1482   1.518       .  S
C1476      C1477   1.405       .  A
C1476      H1481   1.083       .  S
C1477      C1478   1.420       .  A
C1478      C1479   1.515       .  S
C1479      F1483   1.385       .  S
C1479      F1484   1.382   1_565  S
C1479      F1485   1.384       .  S
C1482      F1486   1.382       .  S
C1482      F1487   1.382       .  S
C1482      F1488   1.384       .  S
C1489      C1490   1.408   1_565  A
C1489      H1496   1.083       .  S
C1490      C1491   1.421       .  A
C1491      C1498   1.518       .  S
C1492      C1493   1.398   1_545  A
C1492      H1497   1.082       .  S
C1493      C1494   1.414       .  A
C1494      C1495   1.517       .  S
C1495      F1499   1.384       .  S
C1495      F1500   1.383       .  S
C1495      F1501   1.383       .  S
C1498      F1502   1.383   1_556  S
C1498      F1503   1.381       .  S
C1498      F1504   1.382       .  S
C1505      C1506   1.404       .  A
C1505      C1510   1.408       .  A
C1505      H1512   1.080       .  S
C1506      C1507   1.424       .  A
C1507      C1508   1.413       .  A
C1507      C1514   1.520       .  S
C1508      C1509   1.401       .  A
C1508      H1513   1.083       .  S
C1509      C1510   1.414       .  A
C1510      C1511   1.517       .  S
C1511      F1515   1.385       .  S
C1511      F1516   1.381       .  S
C1511      F1517   1.384       .  S
C1514      F1518   1.383       .  S
C1514      F1519   1.383       .  S
C1514      F1520   1.385       .  S
C1521      C1522   1.409       .  A
C1521      C1526   1.412       .  A
C1521      H1528   1.082       .  S
C1522      C1523   1.420       .  A
C1523      C1524   1.412       .  A
C1523      C1530   1.518       .  S
C1524      C1525   1.412       .  A
C1524      H1529   1.081       .  S
C1525      C1526   1.426       .  A
C1526      C1527   1.522       .  S
C1527      F1531   1.385       .  S
C1527      F1532   1.383       .  S
C1527      F1533   1.383       .  S
C1530      F1534   1.384       .  S
C1530      F1535   1.383       .  S
C1530      F1536   1.385       .  S
C1537      C1538   1.409   1_455  A
C1537      C1542   1.413       .  A
C1537      H1544   1.082       .  S
C1538      C1539   1.424       .  A
C1539      C1540   1.395       .  A
C1539      C1546   1.525       .  S
C1540      C1541   1.399   1_655  A
C1540      H1545   1.084       .  S
C1541      C1542   1.415       .  A
C1542      C1543   1.517       .  S
C1543      F1547   1.384       .  S
C1543      F1548   1.383       .  S
C1543      F1549   1.383       .  S
C1546      F1550   1.383       .  S
C1546      F1551   1.382       .  S
C1546      F1552   1.383       .  S
C1553      C1554   1.400   1_655  A
C1553      C1558   1.404       .  A
C1553      H1560   1.083       .  S
C1554      C1555   1.417       .  A
C1555      C1556   1.409       .  A
C1555      C1562   1.516       .  S
C1556      C1557   1.402   1_455  A
C1556      H1561   1.079       .  S
C1557      C1558   1.420       .  A
C1558      C1559   1.515       .  S
C1559      F1563   1.385       .  S
C1559      F1564   1.380       .  S
C1559      F1565   1.374       .  S
C1562      F1566   1.383       .  S
C1562      F1567   1.382       .  S
C1562      F1568   1.381       .  S
C1569      C1570   1.405       .  A
C1569      C1574   1.417       .  A
C1569      H1576   1.083       .  S
C1570      C1571   1.415       .  A
C1571      C1572   1.408       .  A
C1571      C1578   1.518       .  S
C1572      C1573   1.412       .  A
C1572      H1577   1.084       .  S
C1573      C1574   1.428       .  A
C1574      C1575   1.519       .  S
C1575      F1579   1.385       .  S
C1575      F1580   1.383       .  S
C1575      F1581   1.382       .  S
C1578      F1582   1.384       .  S
C1578      F1583   1.383       .  S
C1578      F1584   1.384       .  S
C1585      C1586   1.404       .  A
C1585      C1590   1.413       .  A
C1585      H1592   1.083       .  S
C1586      C1587   1.420       .  A
C1587      C1588   1.405       .  A
C1587      C1594   1.521       .  S
C1588      C1589   1.405       .  A
C1588      H1593   1.082       .  S
C1589      C1590   1.425       .  A
C1590      C1591   1.520       .  S
C1591      F1595   1.385       .  S
C1591      F1596   1.383       .  S
C1591      F1597   1.383       .  S
C1594      F1598   1.382       .  S
C1594      F1599   1.382       .  S
C1594      F1600   1.385       .  S
C1601      C1606   1.410       .  A
C1601      H1608   1.083       .  S
C1602      C1603   1.423   1_554  A
C1603      C1604   1.413   1_556  A
C1603      C1610   1.519       .  S
C1604      H1609   1.082       .  S
C1605      C1606   1.424       .  A
C1606      C1607   1.514       .  S
C1607      F1611   1.385       .  S
C1607      F1612   1.379       .  S
C1607      F1613   1.383       .  S
C1610      F1614   1.383       .  S
C1610      F1615   1.382       .  S
C1610      F1616   1.384       .  S
C1617      C1618   1.404       .  A
C1617      C1622   1.404       .  A
C1617      H1624   1.083       .  S
C1618      C1619   1.414       .  A
C1619      C1620   1.407       .  A
C1619      C1626   1.517       .  S
C1620      C1621   1.403       .  A
C1620      H1625   1.084       .  S
C1621      C1622   1.411       .  A
C1622      C1623   1.518       .  S
C1623      F1627   1.385       .  S
C1623      F1628   1.383       .  S
C1623      F1629   1.383       .  S
C1626      F1630   1.382       .  S
C1626      F1631   1.383       .  S
C1626      F1632   1.385       .  S
C1633      C1634   1.404       .  A
C1633      C1638   1.407       .  A
C1633      H1640   1.081       .  S
C1634      C1635   1.420       .  A
C1635      C1636   1.409       .  A
C1635      C1642   1.521       .  S
C1636      C1637   1.410       .  A
C1636      H1641   1.082       .  S
C1637      C1638   1.426       .  A
C1638      C1639   1.520       .  S
C1639      F1643   1.385       .  S
C1639      F1644   1.381       .  S
C1639      F1645   1.383       .  S
C1642      F1646   1.382       .  S
C1642      F1647   1.384       .  S
C1642      F1648   1.385       .  S
C1649      C1650   1.399       .  A
C1649      C1654   1.399       .  A
C1649      H1656   1.084       .  S
C1650      C1651   1.414       .  A
C1651      C1652   1.412       .  A
C1651      C1658   1.515       .  S
C1652      C1653   1.407       .  A
C1652      H1657   1.083       .  S
C1653      C1654   1.424       .  A
C1654      C1655   1.522       .  S
C1655      F1659   1.385       .  S
C1655      F1660   1.384       .  S
C1655      F1661   1.380       .  S
C1658      F1662   1.383       .  S
C1658      F1663   1.379       .  S
C1658      F1664   1.384       .  S
C1665      C1666   1.411       .  A
C1665      C1670   1.409       .  A
C1665      H1672   1.084       .  S
C1666      C1667   1.431       .  A
C1667      C1668   1.413       .  A
C1667      C1674   1.521       .  S
C1668      C1669   1.403       .  A
C1668      H1673   1.081       .  S
C1669      C1670   1.417       .  A
C1670      C1671   1.517       .  S
C1671      F1675   1.384   1_556  S
C1671      F1676   1.385   1_556  S
C1671      F1677   1.383       .  S
C1674      F1678   1.383       .  S
C1674      F1679   1.383       .  S
C1674      F1680   1.385       .  S
