geometry optimzed in LAMMPS
_audit_creation_date              2020-11-30 
_audit_creation_method            'lammps2cif' 
_symmetry_space_group_name_H-M    'P1' 
_symmetry_Int_Tables_number       1 
_symmetry_cell_setting            triclinic 
loop_ 
_symmetry_equiv_pos_as_xyz 
  x,y,z 
_cell_length_a                    52.01743644 
_cell_length_b                    52.01188380598304 
_cell_length_c                    54.65390722893925 
_cell_angle_alpha                 90.0807439814547 
_cell_angle_beta                  89.8861700618624 
_cell_angle_gamma                 121.30512540136635 
loop_ 
_atom_site_label 
_atom_site_type_symbol 
_atom_site_fract_x 
_atom_site_fract_y 
_atom_site_fract_z 
_atom_site_charge 
O1          O  0.28987795  0.49912266  0.63527549    -0.81800
C2          C  0.38932959  0.52574198  0.57302696     0.97600
O3          O  0.36927760  0.53194703  0.56996506    -0.70900
O4          O  0.31243393  0.49380087  0.56741740    -0.74500
Al5        Al  0.33626764  0.52697874  0.58833574     1.49000
C6          C  0.28654035  0.47258654  0.57266909     0.92900
O7          O  0.31474363  0.44519692  0.61385485    -0.80700
O8          O  0.36336639  0.51208692  0.65743960    -0.74200
Al9        Al  0.30369456  0.47345265  0.62396629     1.90100
O10         O  0.36285938  0.47160944  0.62435731    -0.73300
O11         O  0.39174542  0.55589779  0.62577612    -0.73200
O12         O  0.39210106  0.51573131  0.59311182    -0.78800
O13         O  0.35990987  0.56317397  0.60519759    -0.77000
O14         O  0.33830591  0.50465868  0.61216229    -1.13200
O15         O  0.30259531  0.52724622  0.60212477    -0.72400
C16         C  0.28899163  0.51887103  0.62241996     0.98400
C17         C  0.33979060  0.44719898  0.61760945     0.94800
Al18       Al  0.37413129  0.51297359  0.62411263     1.55600
O19         O  0.27976251  0.46449753  0.59462437    -0.77000
C20         C  0.38285557  0.57298687  0.61843623     0.98900
C21         C  0.34033450  0.49216563  0.66838496     0.93800
O22         O  0.31724820  0.47398844  0.65651698    -0.82300
O23         O  0.20992680  0.71742880  0.63440301    -0.81800
C24         C  0.13226069  0.61623398  0.57541728     0.97600
O25         O  0.16021971  0.63358803  0.57305156    -0.70900
O26         O  0.17935460  0.69015934  0.56764815    -0.74500
Al27       Al  0.18956204  0.66868120  0.58966350     1.49000
C28         C  0.18331542  0.71570931  0.57194165     0.92900
O29         O  0.12918912  0.68973244  0.61458523    -0.80700
O30         O  0.15059962  0.64350693  0.65804343    -0.74200
Al31       Al  0.16936336  0.70193547  0.62401313     1.90100
O32         O  0.10713677  0.64349562  0.62903088    -0.73300
O33         O  0.16047256  0.61290637  0.62483410    -0.73200
O34         O  0.11895304  0.61562907  0.59482783    -0.78800
O35         O  0.20293324  0.64761300  0.60845368    -0.77000
O36         O  0.16521661  0.66744804  0.61309534    -1.13200
O37         O  0.22450737  0.70404953  0.60147073    -0.72400
C38         C  0.23048261  0.71825566  0.62143488     0.98400
C39         C  0.10570150  0.66548991  0.62086271     0.94800
Al40       Al  0.13677238  0.63202155  0.62562144     1.55600
O41         O  0.18304020  0.72385887  0.59363861    -0.77000
C42         C  0.18791142  0.62325264  0.61990510     0.98900
C43         C  0.15436666  0.66648111  0.66903595     0.93800
O44         O  0.15747769  0.68877550  0.65721342    -0.82300
O45         O  0.51064050  0.80286272  0.63252533    -0.81800
C46         C  0.48971172  0.88258154  0.57643900     0.97600
O47         O  0.48052929  0.85539831  0.57238614    -0.70900
O48         O  0.51926458  0.83878537  0.56659775    -0.74500
Al49       Al  0.48551366  0.82578586  0.58768373     1.49000
C50         C  0.53926858  0.83275626  0.57095509     0.92900
O51         O  0.56697698  0.88488421  0.61503354    -0.80700
O52         O  0.49779278  0.86002557  0.65833218    -0.74200
Al53       Al  0.53780713  0.84408268  0.62339061     1.90100
O54         O  0.54206339  0.90531696  0.62995357    -0.73300
O55         O  0.45698898  0.84987712  0.62553948    -0.73200
O56         O  0.50142029  0.89459218  0.59660608    -0.78800
O57         O  0.44923884  0.80999720  0.60532764    -0.77000
O58         O  0.50771708  0.84841009  0.61253060    -1.13200
O59         O  0.48526684  0.79070063  0.59793886    -0.72400
C60         C  0.49132897  0.78324268  0.61813187     0.98400
C61         C  0.56590704  0.90775073  0.62145536     0.94800
Al62       Al  0.50028507  0.87511682  0.62645221     1.55600
O63         O  0.54639397  0.83145424  0.59277233    -0.77000
C64         C  0.43963363  0.82309219  0.61850244     0.98900
C65         C  0.51739896  0.85695494  0.66899779     0.93800
O66         O  0.53675232  0.85471089  0.65686157    -0.82300
O67         O  0.20547313  0.49800606  0.37831538    -0.81800
C68         C  0.12985267  0.52296276  0.43694366     0.97600
O69         O  0.15674782  0.53070911  0.44061445    -0.70900
O70         O  0.17214511  0.49093883  0.44496942    -0.74500
Al71       Al  0.18519047  0.52472476  0.42410607     1.49000
C72         C  0.17654821  0.46992063  0.44017107     0.92900
O73         O  0.12272224  0.44377711  0.39686830    -0.80700
O74         O  0.14817204  0.51300317  0.35386888    -0.74200
Al75       Al  0.16392307  0.47199250  0.38807361     1.90100
O76         O  0.10341098  0.47045671  0.38382736    -0.73300
O77         O  0.16176932  0.55476827  0.38687815    -0.73200
O78         O  0.11730853  0.51198177  0.41681475    -0.78800
O79         O  0.20114165  0.56105246  0.40690233    -0.77000
O80         O  0.16133355  0.50297451  0.39951864    -1.13200
O81         O  0.21957886  0.52406211  0.41258587    -0.72400
C82         C  0.22604079  0.51711838  0.39228749     0.98400
C83         C  0.10019483  0.44607422  0.39171358     0.94800
Al84       Al  0.13505733  0.51172166  0.38646508     1.55600
O85         O  0.17654700  0.46235183  0.41823033    -0.77000
C86         C  0.18858188  0.57141462  0.39404590     0.98900
C87         C  0.15022754  0.49284122  0.34300345     0.93800
O88         O  0.15276449  0.47362729  0.35498978    -0.82300
O89         O  0.29685966  0.80054486  0.37927197    -0.81800
C90         C  0.39728792  0.88254767  0.43809249     0.97600
O91         O  0.37812732  0.85540108  0.44195724    -0.70900
O92         O  0.32105165  0.83516471  0.44602050    -0.74500
Al93       Al  0.34398698  0.82501481  0.42545187     1.49000
C94         C  0.29447151  0.82760494  0.44096392     0.92900
O95         O  0.31900849  0.88044214  0.39779478    -0.80700
O96         O  0.36767124  0.86276432  0.35500860    -0.74200
Al97       Al  0.30922283  0.84077676  0.38909572     1.90100
O98         O  0.36678381  0.90478180  0.38599281    -0.73300
O99         O  0.39816177  0.85197586  0.38696393    -0.73200
O100        O  0.39835941  0.89457425  0.41788287    -0.78800
O101        O  0.36650884  0.81215334  0.40832179    -0.77000
O102        O  0.34458477  0.84749562  0.40072268    -1.13200
O103        O  0.30964996  0.78890043  0.41405377    -0.72400
C104        C  0.29659462  0.78126317  0.39354066     0.98400
C105        C  0.34342265  0.90469732  0.39294755     0.94800
Al106      Al  0.37955802  0.87605018  0.38757922     1.55600
O107        O  0.28653239  0.82598910  0.41898986    -0.77000
C108        C  0.38903403  0.82558159  0.39446216     0.98900
C109        C  0.34419543  0.85756685  0.34419085     0.93800
O110        O  0.32155572  0.85288098  0.35617360    -0.82300
O111        O  0.51115177  0.72253164  0.37686634    -0.81800
C112        C  0.48787198  0.62222633  0.43578978     0.97600
O113        O  0.47988935  0.64090435  0.43961348    -0.70900
O114        O  0.51891260  0.69812238  0.44353610    -0.74500
Al115      Al  0.48489565  0.67510932  0.42300024     1.49000
C116        C  0.53974385  0.72432443  0.43833199     0.92900
O117        O  0.56591715  0.69789435  0.39504180    -0.80700
O118        O  0.49569929  0.65017937  0.35288902    -0.74200
Al119      Al  0.53727061  0.70879647  0.38651094     1.90100
O120        O  0.53997391  0.65089143  0.38178685    -0.73300
O121        O  0.45464161  0.61955822  0.38657137    -0.73200
O122        O  0.49907060  0.62132980  0.41564156    -0.78800
O123        O  0.44803589  0.65240926  0.40625041    -0.77000
O124        O  0.50662032  0.67396142  0.39830917    -1.13200
O125        O  0.48481586  0.70952524  0.41106308    -0.72400
C126        C  0.49195605  0.72308545  0.39072328     0.98400
C127        C  0.56435233  0.67353537  0.38926078     0.94800
Al128      Al  0.49818307  0.63869291  0.38531867     1.55600
O129        O  0.54698251  0.73175010  0.41632489    -0.77000
C130        C  0.43761980  0.62871061  0.39377070     0.98900
C131        C  0.51537494  0.67332329  0.34185908     0.93800
O132        O  0.53525846  0.69563348  0.35361401    -0.82300
O133        O  0.69308998  0.53552752  0.35278629    -0.81800
C134        C  0.62003033  0.49564723  0.43782543     0.97600
O135        O  0.61089064  0.49398312  0.41613988    -0.70900
O136        O  0.64028980  0.54646816  0.39514289    -0.74500
Al137      Al  0.63195538  0.50806962  0.38567195     1.49000
C138        C  0.66357349  0.57181429  0.39160757     0.92900
O139        O  0.71669548  0.56155174  0.41834726    -0.80700
O140        O  0.68768950  0.47855292  0.39882155    -0.74200
Al141      Al  0.70209947  0.54602884  0.38629801     1.90100
O142        O  0.70306808  0.51866507  0.43591952    -0.73300
O143        O  0.63089850  0.45439450  0.40886532    -0.73200
O144        O  0.64584352  0.50012746  0.44218447    -0.78800
O145        O  0.61905598  0.46821584  0.37501672    -0.77000
O146        O  0.66711890  0.51491754  0.39700613    -1.13200
O147        O  0.64519110  0.52047239  0.35282857    -0.72400
C148        C  0.66916559  0.52795155  0.34141271     0.98400
C149        C  0.71904833  0.54688756  0.43556341     0.94800
Al150      Al  0.66695918  0.49019265  0.41953125     1.55600
O151        O  0.68807330  0.57415967  0.38495869    -0.77000
C152        C  0.61678334  0.44780893  0.38888559     0.98900
C153        C  0.71247729  0.49541299  0.38828433     0.93800
O154        O  0.72264934  0.52337744  0.38553341    -0.82300
O155        O  0.47794218  0.31826963  0.65601769    -0.81800
C156        C  0.51913103  0.39338788  0.57196619     0.97600
O157        O  0.52086154  0.40139577  0.59392890    -0.70900
O158        O  0.46739255  0.37127678  0.61386630    -0.74500
Al159      Al  0.50543202  0.37889285  0.62342359     1.49000
C160        C  0.44196995  0.34802890  0.61750507     0.92900
O161        O  0.45027605  0.29223829  0.59094537    -0.80700
O162        O  0.53238715  0.32047722  0.60648161    -0.74200
Al163      Al  0.46679141  0.30854554  0.62263839     1.90100
O164        O  0.49219209  0.30994970  0.57047070    -0.73300
O165        O  0.55753524  0.37759001  0.59980578    -0.73200
O166        O  0.51314215  0.36728932  0.56661845    -0.78800
O167        O  0.54466440  0.39011329  0.63405927    -0.77000
O168        O  0.49775216  0.34344721  0.61137638    -1.13200
O169        O  0.49245895  0.36588785  0.65596330    -0.72400
C170        C  0.48532185  0.34216846  0.66737774     0.98400
C171        C  0.46427167  0.29259839  0.57197749     0.94800
Al172      Al  0.52160692  0.34370091  0.58788985     1.55600
O173        O  0.43927122  0.32326564  0.62389131    -0.77000
C174        C  0.56439501  0.39080131  0.62019534     0.98900
C175        C  0.51615761  0.29673226  0.61850127     0.93800
O176        O  0.48900307  0.28796563  0.62348387    -0.82300
O177        O  0.46909852  0.17541071  0.35143600    -0.81800
C178        C  0.51396704  0.14745388  0.43529489     0.97600
O179        O  0.51504390  0.13970440  0.41360098    -0.70900
O180        O  0.46112378  0.11314180  0.39495442    -0.74500
Al181      Al  0.49852638  0.14451920  0.38381885     1.49000
C182        C  0.43541885  0.10936312  0.39189394     0.92900
O183        O  0.44531939  0.17378131  0.41789192    -0.80700
O184        O  0.52720991  0.23120453  0.39604214    -0.74200
Al185      Al  0.45974370  0.17441176  0.38532835     1.90100
O186        O  0.48900759  0.20526673  0.43402565    -0.73300
O187        O  0.55248251  0.20055788  0.40476227    -0.73200
O188        O  0.50886876  0.16820768  0.43974149    -0.78800
O189        O  0.53733957  0.17311682  0.37147407    -0.77000
O190        O  0.49160785  0.17260738  0.39520127    -1.13200
O191        O  0.48385155  0.14292805  0.35160882    -0.72400
C192        C  0.47610570  0.15878744  0.34011350     0.98400
C193        C  0.46082813  0.19237994  0.43435580     0.94800
Al194      Al  0.51706898  0.19892466  0.41686947     1.55600
O195        O  0.43218028  0.13083193  0.38500742    -0.77000
C196        C  0.55816385  0.19315411  0.38438873     0.98900
C197        C  0.50971973  0.23809711  0.38624588     0.93800
O198        O  0.48178454  0.21870990  0.38386114    -0.82300
O199        O  0.83258811  0.53308315  0.65276642    -0.81800
C200        C  0.86923467  0.49763291  0.56766293     0.97600
O201        O  0.87503383  0.49471903  0.58952682    -0.70900
O202        O  0.89844536  0.54669278  0.61160217    -0.74500
Al203      Al  0.86693531  0.50795050  0.61978884     1.49000
C204        C  0.90084771  0.57170536  0.61554523     0.92900
O205        O  0.83650375  0.56240712  0.58850622    -0.80700
O206        O  0.78120478  0.47887019  0.60186435    -0.74200
Al207      Al  0.83509026  0.54498921  0.61964772     1.90100
O208        O  0.81098077  0.52118787  0.56723365    -0.73300
O209        O  0.81383573  0.45592665  0.59406541    -0.73200
O210        O  0.84906386  0.50327685  0.56270272    -0.78800
O211        O  0.83791930  0.46792580  0.62906869    -0.77000
O212        O  0.83923663  0.51515753  0.60779268    -1.13200
O213        O  0.86552404  0.51908454  0.65290153    -0.72400
C214        C  0.84872397  0.52578272  0.66425237     0.98400
C215        C  0.82204115  0.54895532  0.56957601     0.94800
Al216      Al  0.81587618  0.49197691  0.58355057     1.55600
O217        O  0.87827579  0.57356307  0.62166339    -0.77000
C218        C  0.81924961  0.44842751  0.61446644     0.98900
C219        C  0.77294353  0.49377644  0.61414004     0.93800
O220        O  0.79119975  0.52114013  0.61969177    -0.82300
O221        O  0.82821734  0.32111841  0.34873132    -0.81800
C222        C  0.86097073  0.39420217  0.43339767     0.97600
O223        O  0.86860068  0.40346762  0.41174101    -0.70900
O224        O  0.89236612  0.37486985  0.39210369    -0.74500
Al225      Al  0.86212283  0.38197798  0.38166723     1.49000
C226        C  0.89430590  0.35196162  0.38891708     0.92900
O227        O  0.82823898  0.29674129  0.41435978    -0.80700
O228        O  0.77433648  0.32366679  0.39493242    -0.74200
Al229      Al  0.82867672  0.31183707  0.38229861     1.90100
O230        O  0.80012429  0.31092609  0.43233248    -0.73300
O231        O  0.80790866  0.38065342  0.40374903    -0.73200
O232        O  0.83918376  0.36810106  0.43774658    -0.78800
O233        O  0.83483190  0.39319347  0.37015392    -0.77000
O234        O  0.83277654  0.34635287  0.39294508    -1.13200
O235        O  0.86244272  0.36909088  0.34905237    -0.72400
C236        C  0.84544549  0.34519971  0.33748952     0.98400
C237        C  0.81196816  0.29520516  0.43204818     0.94800
Al238      Al  0.80761624  0.34583418  0.41527436     1.55600
O239        O  0.87177229  0.32714271  0.38193767    -0.77000
C240        C  0.81564785  0.39423101  0.38352105     0.98900
C241        C  0.76644075  0.29940141  0.38390448     0.93800
O242        O  0.78473281  0.29039980  0.38071192    -0.82300
O243        O  0.68494111  0.17866700  0.65381320    -0.81800
C244        C  0.61071265  0.14197207  0.56961991     0.97600
O245        O  0.60194559  0.13421370  0.59136005    -0.70900
O246        O  0.63331730  0.11246666  0.60992914    -0.74500
Al247      Al  0.62441052  0.14136430  0.62103092     1.49000
C248        C  0.65667797  0.11175423  0.61452962     0.92900
O249        O  0.70970083  0.17782639  0.58802111    -0.80700
O250        O  0.67997956  0.22959806  0.60697677    -0.74200
Al251      Al  0.69453727  0.17765231  0.62023953     1.90100
O252        O  0.69364522  0.20421067  0.56974755    -0.73300
O253        O  0.62306622  0.19426206  0.59954162    -0.73200
O254        O  0.63666886  0.16381811  0.56506986    -0.78800
O255        O  0.61194105  0.16757046  0.63321233    -0.77000
O256        O  0.65935021  0.17170777  0.60958846    -1.13200
O257        O  0.63813956  0.14129413  0.65344115    -0.72400
C258        C  0.66138997  0.15988169  0.66507149     0.98400
C259        C  0.71055109  0.19364961  0.57019840     0.94800
Al260      Al  0.65843381  0.19584095  0.58720837     1.55600
O261        O  0.68068688  0.13503848  0.62176652    -0.77000
C262        C  0.61023303  0.18659492  0.62015520     0.98900
C263        C  0.70496457  0.23893599  0.61717645     0.93800
O264        O  0.71487254  0.22151490  0.62079421    -0.82300
O265        O  0.71673660  0.51848293  0.13423942    -0.81800
C266        C  0.61422751  0.48952592  0.07608859     0.97600
O267        O  0.63106515  0.47892249  0.07444945    -0.70900
O268        O  0.68817405  0.51832276  0.06700903    -0.74500
Al269      Al  0.66697276  0.48722854  0.09047527     1.49000
C270        C  0.71464412  0.53987964  0.07045499     0.92900
O271        O  0.69141189  0.57211929  0.11197404    -0.80700
O272        O  0.64442259  0.50564965  0.15793646    -0.74200
Al273      Al  0.70249448  0.54379457  0.12261502     1.90100
O274        O  0.64516982  0.54768827  0.12664414    -0.73300
O275        O  0.61233694  0.46218878  0.12611548    -0.73200
O276        O  0.61570297  0.50517587  0.09420136    -0.78800
O277        O  0.64610319  0.45338477  0.11101265    -0.77000
O278        O  0.66722814  0.51225412  0.11280080    -1.13200
O279        O  0.70252490  0.48923222  0.10179956    -0.72400
C280        C  0.71692872  0.49816403  0.12162327     0.98400
C281        C  0.66720302  0.57115334  0.11746225     0.94800
Al282      Al  0.63252817  0.50582366  0.12524822     1.55600
O283        O  0.72354024  0.54992329  0.09182243    -0.77000
C284        C  0.62155546  0.44436613  0.12192531     0.98900
C285        C  0.66793831  0.52583952  0.16827610     0.93800
O286        O  0.69036031  0.54462819  0.15578400    -0.82300
O287        O  0.49304015  0.29594720  0.87357214    -0.81800
C288        C  0.52050495  0.39571806  0.93531608     0.97600
O289        O  0.52829888  0.37673472  0.93750312    -0.70900
O290        O  0.48867630  0.32020690  0.94121771    -0.74500
Al291      Al  0.52166676  0.34277268  0.91977205     1.49000
C292        C  0.46680838  0.29441753  0.93644771     0.92900
O293        O  0.43957376  0.32186372  0.89448233    -0.80700
O294        O  0.50808890  0.37010050  0.85158290    -0.74200
Al295      Al  0.46768236  0.31037430  0.88465503     1.90100
O296        O  0.46622426  0.36962223  0.88327637    -0.73300
O297        O  0.55069863  0.39862501  0.88353322    -0.73200
O298        O  0.50895528  0.39781047  0.91580621    -0.78800
O299        O  0.55737262  0.36498400  0.90169120    -0.77000
O300        O  0.49906538  0.34482308  0.89633781    -1.13200
O301        O  0.52046883  0.30813904  0.90696941    -0.72400
C302        C  0.51263513  0.29496789  0.88653313     0.98400
C303        C  0.44176418  0.34694546  0.89045740     0.94800
Al304      Al  0.50760677  0.38073088  0.88456660     1.55600
O305        O  0.45843682  0.28701414  0.91455965    -0.77000
C306        C  0.56734046  0.38848248  0.88906752     0.98900
C307        C  0.48852165  0.34722380  0.84031138     0.93800
O308        O  0.46920418  0.32426604  0.85187153    -0.82300
O309        O  0.70939371  0.21640324  0.87300512    -0.81800
C310        C  0.60900873  0.13924132  0.93298237     0.97600
O311        O  0.62735770  0.16694902  0.93566896    -0.70900
O312        O  0.68438471  0.18630080  0.94038456    -0.74500
Al313      Al  0.66219629  0.19623963  0.91873764     1.49000
C314        C  0.71030350  0.19153481  0.93551123     0.92900
O315        O  0.68337184  0.13629804  0.89307634    -0.80700
O316        O  0.63631306  0.15660083  0.84978892    -0.74200
Al317      Al  0.69501366  0.17628791  0.88356690     1.90100
O318        O  0.63641974  0.11384890  0.88000511    -0.73300
O319        O  0.60669846  0.16733288  0.88299667    -0.73200
O320        O  0.60817081  0.12594587  0.91349975    -0.78800
O321        O  0.64064021  0.20942201  0.90045943    -0.77000
O322        O  0.66060681  0.17188398  0.89503706    -1.13200
O323        O  0.69728688  0.23126955  0.90652806    -0.72400
C324        C  0.71053409  0.23699652  0.88609196     0.98400
C325        C  0.65858696  0.11265215  0.88801207     0.94800
Al326      Al  0.62511303  0.14344295  0.88262725     1.55600
O327        O  0.71773305  0.19087570  0.91362041    -0.77000
C328        C  0.61674641  0.19452370  0.88841882     0.98900
C329        C  0.65924827  0.16050404  0.83865476     0.93800
O330        O  0.68162107  0.16391870  0.85049208    -0.82300
O331        O  0.79648062  0.51510319  0.87216496    -0.81800
C332        C  0.87463881  0.49447082  0.93084721     0.97600
O333        O  0.84686463  0.48360210  0.93360111    -0.70900
O334        O  0.82884625  0.52141864  0.93921112    -0.74500
Al335      Al  0.81768231  0.48885490  0.91734800     1.49000
C336        C  0.82288010  0.54149397  0.93493147     0.92900
O337        O  0.87745088  0.57207263  0.89228618    -0.80700
O338        O  0.85584128  0.50404874  0.84830151    -0.74200
Al339      Al  0.83713696  0.54246840  0.88267908     1.90100
O340        O  0.89927366  0.54822781  0.87809350    -0.73300
O341        O  0.84532464  0.46287965  0.88091759    -0.73200
O342        O  0.88767467  0.50753328  0.91132158    -0.78800
O343        O  0.80352570  0.45376352  0.89859615    -0.77000
O344        O  0.84157811  0.51246047  0.89357444    -1.13200
O345        O  0.78283480  0.48844217  0.90608149    -0.72400
C346        C  0.77626939  0.49499497  0.88569724     0.98400
C347        C  0.90090344  0.57152718  0.88692932     0.94800
Al348      Al  0.86961043  0.50628760  0.88070108     1.55600
O349        O  0.82279766  0.54965850  0.91317781    -0.77000
C350        C  0.81799003  0.44503207  0.88627782     0.98900
C351        C  0.85192771  0.52303142  0.83742062     0.93800
O352        O  0.84926184  0.54226737  0.84940985    -0.82300
O353        O  0.49220217  0.21345098  0.13272873    -0.81800
C354        C  0.51799241  0.13999500  0.07245480     0.97600
O355        O  0.52605020  0.16709078  0.06929020    -0.70900
O356        O  0.48790555  0.18429264  0.06554162    -0.74500
Al357      Al  0.52086176  0.19550799  0.08676909     1.49000
C358        C  0.46635405  0.18775875  0.07044507     0.92900
O359        O  0.43898873  0.13163781  0.11249667    -0.80700
O360        O  0.50770629  0.15639763  0.15630504    -0.74200
Al361      Al  0.46693099  0.17257283  0.12209993     1.90100
O362        O  0.46552755  0.11226024  0.12557677    -0.73300
O363        O  0.54985977  0.17013057  0.12326737    -0.73200
O364        O  0.50734210  0.12708191  0.09257752    -0.78800
O365        O  0.55693840  0.21019844  0.10399692    -0.77000
O366        O  0.49837826  0.17065907  0.11073434    -1.13200
O367        O  0.52067375  0.22959751  0.09969424    -0.72400
C368        C  0.51214499  0.23471881  0.11983535     0.98400
C369        C  0.44124287  0.10905531  0.11749696     0.94800
Al370      Al  0.50681160  0.14392228  0.12335873     1.55600
O371        O  0.45786238  0.18616780  0.09228871    -0.77000
C372        C  0.56691846  0.19695361  0.11638025     0.98900
C373        C  0.48742721  0.15841132  0.16709983     0.93800
O374        O  0.46810366  0.16063062  0.15498994    -0.82300
O375        O  0.79640620  0.30241853  0.13042734    -0.81800
C376        C  0.87460884  0.40252105  0.06972101     0.97600
O377        O  0.84701748  0.38388508  0.06697144    -0.70900
O378        O  0.82769319  0.32696784  0.06313995    -0.74500
Al379      Al  0.81761391  0.34946291  0.08420915     1.49000
C380        C  0.82207076  0.30096379  0.06808037     0.92900
O381        O  0.87603711  0.32732331  0.11050830    -0.80700
O382        O  0.85717198  0.37576710  0.15316661    -0.74200
Al383      Al  0.83647163  0.31642500  0.11989574     1.90100
O384        O  0.89931830  0.37474192  0.12275599    -0.73300
O385        O  0.84616532  0.40532888  0.12009278    -0.73200
O386        O  0.88772679  0.40366181  0.08935822    -0.78800
O387        O  0.80456049  0.37151045  0.10195361    -0.77000
O388        O  0.84149743  0.35107092  0.10813171    -1.13200
O389        O  0.78249905  0.31473598  0.09656582    -0.72400
C390        C  0.77620059  0.30129940  0.11691601     0.98400
C391        C  0.89986659  0.35185294  0.11556873     0.94800
Al392      Al  0.87010670  0.38666131  0.12030836     1.55600
O393        O  0.82184054  0.29333836  0.09002241    -0.77000
C394        C  0.81908075  0.39531830  0.11421785     0.98900
C395        C  0.85298571  0.35283283  0.16441647     0.93800
O396        O  0.84896143  0.33010294  0.15277674    -0.82300
O397        O  0.31123759  0.48107833  0.85214561    -0.81800
C398        C  0.38245320  0.52746405  0.93714424     0.97600
O399        O  0.39213485  0.52727370  0.91596965    -0.70900
O400        O  0.36295355  0.47296869  0.89800607    -0.74500
Al401      Al  0.37166065  0.51049396  0.88570767     1.49000
C402        C  0.34005406  0.44741593  0.89427810     0.92900
O403        O  0.28668280  0.45984260  0.91862635    -0.80700
O404        O  0.31569206  0.54122636  0.89296965    -0.74200
Al405      Al  0.30155406  0.47281251  0.88582923     1.90100
O406        O  0.29950083  0.50436762  0.93239931    -0.73300
O407        O  0.37234027  0.56599247  0.90421712    -0.73200
O408        O  0.35660064  0.52344362  0.94038579    -0.78800
O409        O  0.38504965  0.54935680  0.87241768    -0.77000
O410        O  0.33633976  0.50476208  0.89561986    -1.13200
O411        O  0.35891475  0.49510159  0.85324414    -0.72400
C412        C  0.33517154  0.48716315  0.84132662     0.98400
C413        C  0.28369521  0.47618913  0.93403351     0.94800
Al414      Al  0.33604084  0.53137975  0.91580644     1.55600
O415        O  0.31571426  0.44468543  0.88671065    -0.77000
C416        C  0.38704322  0.57085710  0.88466578     0.98900
C417        C  0.29048587  0.52314704  0.88353880     0.93800
O418        O  0.28065727  0.49506811  0.88265917    -0.82300
O419        O  0.16962955  0.48203134  0.15859283    -0.81800
C420        C  0.14134405  0.52965651  0.07672710     0.97600
O421        O  0.13152879  0.52746244  0.09821043    -0.70900
O422        O  0.10681067  0.47200070  0.11388901    -0.74500
Al423      Al  0.13613231  0.50921228  0.12708569     1.49000
C424        C  0.10416386  0.44687966  0.11761651     0.92900
O425        O  0.17073947  0.46202985  0.09141621    -0.80700
O426        O  0.22496296  0.54242464  0.11665044    -0.74200
Al427      Al  0.16966373  0.47403626  0.12456624     1.90100
O428        O  0.19992552  0.50711263  0.07616670    -0.73300
O429        O  0.19300913  0.56662210  0.11049283    -0.73200
O430        O  0.16358625  0.52698975  0.07239607    -0.78800
O431        O  0.16210751  0.54705928  0.14162555    -0.77000
O432        O  0.16629794  0.50539257  0.11575935    -1.13200
O433        O  0.13389882  0.49246677  0.15863374    -0.72400
C434        C  0.15139483  0.48674964  0.17001559     0.98400
C435        C  0.18729197  0.47897415  0.07436634     0.94800
Al436      Al  0.19309444  0.53332349  0.09566147     1.55600
O437        O  0.12640991  0.44497918  0.12451842    -0.77000
C438        C  0.18270847  0.56950294  0.13053307     0.98900
C439        C  0.23213590  0.52488634  0.12584214     0.93800
O440        O  0.21343865  0.49679915  0.12678273    -0.82300
O441        O  0.17179588  0.69532789  0.85343903    -0.81800
C442        C  0.13950765  0.62051693  0.93677701     0.97600
O443        O  0.13055151  0.61125686  0.91527182    -0.70900
O444        O  0.10764265  0.64112865  0.89675664    -0.74500
Al445      Al  0.13695708  0.63322012  0.88529006     1.49000
C446        C  0.10585297  0.66407363  0.89345777     0.92900
O447        O  0.17192781  0.71673378  0.92023754    -0.80700
O448        O  0.22514575  0.68976445  0.89598175    -0.74200
Al449      Al  0.17147257  0.70344419  0.88726205     1.90100
O450        O  0.20177086  0.70287791  0.93527431    -0.73300
O451        O  0.19135904  0.63272792  0.90497818    -0.73200
O452        O  0.16240336  0.64605176  0.94063905    -0.78800
O453        O  0.16294198  0.62076980  0.87246532    -0.77000
O454        O  0.16708517  0.66829992  0.89649798    -1.13200
O455        O  0.13683870  0.64739704  0.85309592    -0.72400
C456        C  0.15414384  0.67159345  0.84190858     0.98400
C457        C  0.18863317  0.71734037  0.93721015     0.94800
Al458      Al  0.19293241  0.66793521  0.91741092     1.55600
O459        O  0.12858882  0.68884226  0.88677564    -0.77000
C460        C  0.18243091  0.61913154  0.88483802     0.98900
C461        C  0.23304573  0.71482294  0.88643982     0.93800
O462        O  0.21522595  0.72463113  0.88554527    -0.82300
O463        O  0.52953522  0.84117818  0.85275296    -0.81800
C464        C  0.48016760  0.86376161  0.93669587     0.97600
O465        O  0.48040773  0.87321042  0.91534518    -0.70900
O466        O  0.53521960  0.90171803  0.89767797    -0.74500
Al467      Al  0.49849315  0.87039119  0.88536472     1.49000
C468        C  0.56114747  0.90651460  0.89352851     0.92900
O469        O  0.55207301  0.84262951  0.91897920    -0.80700
O470        O  0.47193053  0.78359380  0.89439887    -0.74200
Al471      Al  0.53854492  0.84202439  0.88631406     1.90100
O472        O  0.50822523  0.80910743  0.93411866    -0.73300
O473        O  0.44435044  0.81172124  0.90334437    -0.73200
O474        O  0.48521436  0.84287439  0.94026504    -0.78800
O475        O  0.46055253  0.84210358  0.87179835    -0.77000
O476        O  0.50571681  0.84228609  0.89594074    -1.13200
O477        O  0.51459276  0.87359830  0.85313402    -0.72400
C478        C  0.52282834  0.85803596  0.84159044     0.98400
C479        C  0.53647798  0.82402345  0.93545107     0.94800
Al480      Al  0.47972569  0.81424050  0.91633243     1.55600
O481        O  0.56498189  0.88563636  0.88608530    -0.77000
C482        C  0.43946294  0.82062982  0.88342106     0.98900
C483        C  0.49062635  0.77821975  0.88480803     0.93800
O484        O  0.51845156  0.79817621  0.88413494    -0.82300
O485        O  0.31119017  0.83822790  0.16074492    -0.81800
C486        C  0.38248477  0.86220672  0.07619924     0.97600
O487        O  0.39249731  0.87369385  0.09703479    -0.70900
O488        O  0.36468746  0.89929858  0.11542070    -0.74500
Al489      Al  0.37251668  0.87001712  0.12763311     1.49000
C490        C  0.34226584  0.90200100  0.11883119     0.92900
O491        O  0.28891785  0.83447241  0.09373669    -0.80700
O492        O  0.31493760  0.78171834  0.12281044    -0.74200
Al493      Al  0.30241022  0.83671414  0.12700653     1.90100
O494        O  0.29916226  0.80047794  0.08228433    -0.73300
O495        O  0.37147172  0.81358327  0.11047073    -0.73200
O496        O  0.35659351  0.83915417  0.07363178    -0.78800
O497        O  0.38570853  0.84487123  0.14120186    -0.77000
O498        O  0.33690539  0.83950835  0.11798395    -1.13200
O499        O  0.35961672  0.87193995  0.15998665    -0.72400
C500        C  0.33549248  0.85563554  0.17167971     0.98400
C501        C  0.28477017  0.81359665  0.07939228     0.94800
Al502      Al  0.33565086  0.81124310  0.09889828     1.55600
O503        O  0.31746962  0.87979820  0.12605711    -0.77000
C504        C  0.38682783  0.82456415  0.12956542     0.98900
C505        C  0.28964108  0.77472155  0.13146661     0.93800
O506        O  0.28024292  0.79290081  0.13049905    -0.82300
O507        O  0.52994031  0.70138765  0.15801755    -0.81800
C508        C  0.48192030  0.62756204  0.07448367     0.97600
O509        O  0.48192768  0.61848692  0.09589633    -0.70900
O510        O  0.53644275  0.64729717  0.11323033    -0.74500
Al511      Al  0.49946381  0.63996627  0.12559441     1.49000
C512        C  0.56234696  0.66985031  0.11645924     0.92900
O513        O  0.55098438  0.72401494  0.09130008    -0.80700
O514        O  0.47005954  0.69676472  0.11662468    -0.74200
Al515      Al  0.53819022  0.70999707  0.12415923     1.90100
O516        O  0.50663598  0.71108409  0.07705760    -0.73300
O517        O  0.44469279  0.63981517  0.10670749    -0.73200
O518        O  0.48687628  0.65363728  0.07054730    -0.78800
O519        O  0.46105736  0.62800866  0.13912860    -0.77000
O520        O  0.50587725  0.67524347  0.11485385    -1.13200
O521        O  0.51530797  0.65357591  0.15759603    -0.72400
C522        C  0.52301523  0.67747995  0.16918120     0.98400
C523        C  0.53481601  0.72658901  0.07550752     0.94800
Al524      Al  0.47943207  0.67534848  0.09443143     1.55600
O525        O  0.56586193  0.69483425  0.12345812    -0.77000
C526        C  0.43972618  0.62608906  0.12676400     0.98900
C527        C  0.48834455  0.72187504  0.12610291     0.93800
O528        O  0.51638352  0.73144893  0.12691126    -0.82300
C529        C  0.41636849  0.77836749  0.14405865     0.20400
C530        C  0.41432711  0.75056729  0.14658175    -0.39500
C531        C  0.44121984  0.75086452  0.14358960     0.19400
C532        C  0.46833022  0.77685547  0.13837292     0.22000
C533        C  0.47037297  0.80484075  0.13577886    -0.40000
C534        C  0.44332153  0.80460015  0.13894780     0.20800
N535        N  0.39335060  0.78309970  0.14335394    -0.33300
C536        C  0.40543001  0.81256867  0.13794752    -0.10800
C537        C  0.43663773  0.82685866  0.13511040    -0.29600
N538        N  0.48977831  0.77029294  0.13353489    -0.46200
C539        C  0.47592955  0.73989734  0.13534166    -0.05500
C540        C  0.44577871  0.72718281  0.14184384    -0.22900
H541        H  0.39299489  0.72988225  0.14941585     0.18900
H542        H  0.49114689  0.82500280  0.13054234     0.17700
H543        H  0.45187147  0.84960497  0.12882541     0.14000
H544        H  0.42881341  0.70348149  0.14304371     0.13900
H545        H  0.37047707  0.76679468  0.14474902     0.32000
H546        H  0.51162290  0.78515092  0.12730337     0.34800
C547        C  0.55484820  0.81016541  0.99438333     0.20400
C548        C  0.55229304  0.80879897  0.02001939    -0.39500
C549        C  0.55341746  0.78515935  0.03133643     0.19400
C550        C  0.55655800  0.76422893  0.01811892     0.22000
C551        C  0.55892298  0.76549004  0.99246138    -0.40000
C552        C  0.55813483  0.78933266  0.98115224     0.20800
N553        N  0.55020974  0.82778078  0.97927550    -0.33300
C554        C  0.55057984  0.81822014  0.95625840    -0.10800
C555        C  0.55558725  0.79434669  0.95671996    -0.29600
N556        N  0.55323644  0.74191260  0.03281495    -0.46200
C557        C  0.54808463  0.74870845  0.05556507    -0.05500
C558        C  0.54792341  0.77545265  0.05531127    -0.22900
H559        H  0.54807486  0.82404798  0.03029604     0.18900
H560        H  0.55968453  0.74823204  0.98196964     0.17700
H561        H  0.55393407  0.78026538  0.94146613     0.14000
H562        H  0.54176103  0.78494617  0.07021258     0.13900
H563        H  0.54415393  0.84330121  0.98437503     0.32000
H564        H  0.55201684  0.72204202  0.02738263     0.34800
C565        C  0.44267862  0.88233353  0.98096056     0.20400
C566        C  0.41693160  0.88058261  0.99079718    -0.39500
C567        C  0.41577345  0.88135398  0.01634744     0.19400
C568        C  0.43888714  0.88443776  0.03105841     0.22000
C569        C  0.46451843  0.88586596  0.02123599    -0.40000
C570        C  0.46532103  0.88432536  0.99566850     0.20800
N571        N  0.44691917  0.87759673  0.95755696    -0.33300
C572        C  0.47186231  0.87565019  0.95748896    -0.10800
C573        C  0.48412658  0.87992529  0.98083930    -0.29600
N574        N  0.43072377  0.88082565  0.05469774    -0.46200
C575        C  0.40198349  0.87449554  0.05485868    -0.05500
C576        C  0.39193339  0.87485851  0.03138404    -0.22900
H577        H  0.39818763  0.87666270  0.97945799     0.18900
H578        H  0.48148515  0.88592173  0.03271381     0.17700
H579        H  0.50274106  0.87757380  0.98647852     0.14000
H580        H  0.36941371  0.86859897  0.02592881     0.13900
H581        H  0.43213159  0.87291219  0.94299208     0.32000
H582        H  0.44273035  0.87960980  0.06950316     0.34800
C583        C  0.22897510  0.76816482  0.03566151     0.20400
C584        C  0.20962402  0.74057517  0.02424521    -0.39500
C585        C  0.20287801  0.74204245  0.99970934     0.19400
C586        C  0.21461072  0.76896601  0.98718139     0.22000
C587        C  0.23407544  0.79680316  0.99872640    -0.40000
C588        C  0.24071286  0.79536902  0.02355074     0.20800
N589        N  0.24162300  0.77208764  0.05776674    -0.33300
C590        C  0.26158470  0.80195727  0.06015068    -0.10800
C591        C  0.26154751  0.81742425  0.03923256    -0.29600
N592        N  0.20813349  0.76373192  0.96307795    -0.46200
C593        C  0.19237880  0.73331215  0.96044275    -0.05500
C594        C  0.18860966  0.71921558  0.98292602    -0.22900
H595        H  0.20183078  0.71932308  0.03340993     0.18900
H596        H  0.24461416  0.81783933  0.98876634     0.17700
H597        H  0.27680454  0.84096330  0.03506623     0.14000
H598        H  0.17945037  0.69545659  0.98611378     0.13900
H599        H  0.23850985  0.75515031  0.06986209     0.32000
H600        H  0.21646121  0.77970582  0.94906467     0.34800
C601        C  0.30892914  0.74306936  0.86936478     0.20400
C602        C  0.33483292  0.74131488  0.86811892    -0.39500
C603        C  0.36211642  0.76881888  0.86823588     0.19400
C604        C  0.36361731  0.79619265  0.86909741     0.22000
C605        C  0.33754225  0.79793594  0.87024367    -0.40000
C606        C  0.31009235  0.77026517  0.87043251     0.20800
N607        N  0.28087723  0.72010906  0.87322836    -0.33300
C608        C  0.26391043  0.73252904  0.87707018    -0.10800
C609        C  0.28116228  0.76381006  0.87506070    -0.29600
N610        N  0.39222436  0.81879030  0.87236545    -0.46200
C611        C  0.40868267  0.80548507  0.87408271    -0.05500
C612        C  0.39077059  0.77445009  0.87143554    -0.22900
H613        H  0.33384314  0.72001588  0.86884261     0.18900
H614        H  0.33861167  0.81914760  0.87250672     0.17700
H615        H  0.27411972  0.77968172  0.87881747     0.14000
H616        H  0.39743830  0.75805534  0.87378782     0.13900
H617        H  0.27410217  0.69743413  0.87492597     0.32000
H618        H  0.39965574  0.84140442  0.87560664     0.34800
C619        C  0.11687087  0.54156801  0.01976724     0.20400
C620        C  0.11354569  0.53935813  0.99428261    -0.39500
C621        C  0.11401000  0.56359230  0.98269743     0.19400
C622        C  0.11805896  0.58841532  0.99557540     0.22000
C623        C  0.12033545  0.59013598  0.02112807    -0.40000
C624        C  0.11933440  0.56566765  0.03273243     0.20800
N625        N  0.12250793  0.52433303  0.03434228    -0.33300
C626        C  0.12802698  0.53729132  0.05671837    -0.10800
C627        C  0.12579197  0.56279815  0.05659803    -0.29600
N628        N  0.12467485  0.61116373  0.98027107    -0.46200
C629        C  0.12473980  0.60071405  0.95759829    -0.05500
C630        C  0.11732537  0.57089071  0.95824496    -0.22900
H631        H  0.11320454  0.52134968  0.98404641     0.18900
H632        H  0.12509481  0.61016820  0.03105438     0.17700
H633        H  0.13162186  0.57891814  0.07126414     0.14000
H634        H  0.11875851  0.55799399  0.94330776     0.13900
H635        H  0.12460574  0.50618529  0.02907410     0.32000
H636        H  0.13178534  0.63332703  0.98511915     0.34800
C637        C  0.23280013  0.69919309  0.14476735     0.20400
C638        C  0.20459726  0.67287999  0.14127784    -0.39500
C639        C  0.20388118  0.64565300  0.14399152     0.19400
C640        C  0.22938288  0.64480729  0.14969352     0.22000
C641        C  0.25739890  0.67096940  0.15328295    -0.40000
C642        C  0.25810763  0.69804489  0.15053959     0.20800
N643        N  0.24046762  0.72761120  0.13952352    -0.33300
C644        C  0.27085757  0.74431462  0.14149341    -0.10800
C645        C  0.28250463  0.72671625  0.14869708    -0.29600
N646        N  0.22406918  0.61677620  0.14760934    -0.46200
C647        C  0.19503280  0.59960217  0.14061054    -0.05500
C648        C  0.18152155  0.61662930  0.13831775    -0.22900
H649        H  0.18514933  0.67356896  0.13526589     0.18900
H650        H  0.27762734  0.67031646  0.15623007     0.17700
H651        H  0.30597557  0.73347687  0.14989409     0.14000
H652        H  0.15945063  0.60934513  0.13098022     0.13900
H653        H  0.22639031  0.73461411  0.13258899     0.32000
H654        H  0.23983734  0.61012761  0.14888421     0.34800
C655        C  0.36334072  0.59891987  0.14022098     0.20400
C656        C  0.33783286  0.60129440  0.14057596    -0.39500
C657        C  0.31027661  0.57414610  0.14039975     0.19400
C658        C  0.30790839  0.54638463  0.13970443     0.22000
C659        C  0.33369470  0.54396736  0.13946559    -0.40000
C660        C  0.36158812  0.57141712  0.13986837     0.20800
N661        N  0.39177861  0.62162824  0.13746357    -0.33300
C662        C  0.40863075  0.60888575  0.13552097    -0.10800
C663        C  0.39074345  0.57752769  0.13705926    -0.29600
N664        N  0.27894051  0.52426770  0.13639153    -0.46200
C665        C  0.26324634  0.53845814  0.13467819    -0.05500
C666        C  0.28204150  0.56940396  0.13752212    -0.22900
H667        H  0.33934374  0.62283469  0.13971405     0.18900
H668        H  0.33218498  0.52248167  0.13784630     0.17700
H669        H  0.39772303  0.56144110  0.13419739     0.14000
H670        H  0.27618154  0.58645646  0.13552098     0.13900
H671        H  0.39911958  0.64439930  0.13536594     0.32000
H672        H  0.27081023  0.50145498  0.13345611     0.34800
C673        C  0.22687678  0.46380966  0.97663333     0.20400
C674        C  0.20751209  0.47190313  0.98724309    -0.39500
C675        C  0.20175614  0.46594998  0.01228356     0.19400
C676        C  0.21406646  0.45257065  0.02590001     0.22000
C677        C  0.23366391  0.44450472  0.01522729    -0.40000
C678        C  0.23965764  0.45070368  0.99001778     0.20800
N679        N  0.23910413  0.47143701  0.95421366    -0.33300
C680        C  0.26002835  0.46344359  0.95296124    -0.10800
C681        C  0.26095266  0.45015490  0.97494656    -0.29600
N682        N  0.20793674  0.45279658  0.04991778    -0.46200
C683        C  0.19199258  0.46675353  0.05150695    -0.05500
C684        C  0.18778414  0.47523784  0.02838438    -0.22900
H685        H  0.19911940  0.48385766  0.97704500     0.18900
H686        H  0.24487147  0.43580557  0.02605886     0.17700
H687        H  0.27721448  0.44412357  0.98013730     0.14000
H688        H  0.17807468  0.48875816  0.02417431     0.13900
H689        H  0.23542200  0.48392291  0.94123990     0.32000
H690        H  0.21639351  0.44640620  0.06447423     0.34800
C691        C  0.46587250  0.59049022  0.01742261     0.20400
C692        C  0.46616731  0.58902744  0.99188425    -0.39500
C693        C  0.44109059  0.56411513  0.98135915     0.19400
C694        C  0.41713583  0.54269950  0.99521636     0.22000
C695        C  0.41739145  0.54354543  0.02079948    -0.40000
C696        C  0.44281143  0.56806697  0.03133915     0.20800
N697        N  0.48427085  0.61422837  0.03141915    -0.33300
C698        C  0.47304498  0.60644164  0.05433577    -0.10800
C699        C  0.44762999  0.57770617  0.05516254    -0.29600
N700        N  0.39343066  0.52513744  0.98089581    -0.46200
C701        C  0.40267056  0.53526513  0.95787025    -0.05500
C702        C  0.43238962  0.55899661  0.95731247    -0.22900
H703        H  0.48346910  0.60711255  0.98094407     0.18900
H704        H  0.39821243  0.52761511  0.03162687     0.17700
H705        H  0.43273059  0.56694779  0.07058739     0.14000
H706        H  0.44453654  0.57303106  0.94178713     0.13900
H707        H  0.50198572  0.63511944  0.02555552     0.32000
H708        H  0.37171090  0.50895710  0.98655567     0.34800
C709        C  0.47042367  0.70259750  0.87336945     0.20400
C710        C  0.47181681  0.67655911  0.87713256    -0.39500
C711        C  0.44443704  0.64892651  0.87460080     0.19400
C712        C  0.41777154  0.64752735  0.86903550     0.22000
C713        C  0.41635865  0.67336709  0.86539108    -0.40000
C714        C  0.44358893  0.70075928  0.86767532     0.20800
N715        N  0.49217779  0.73143085  0.87772809    -0.33300
C716        C  0.47870068  0.74768474  0.87519408    -0.10800
C717        C  0.44863094  0.72932906  0.86854111    -0.29600
N718        N  0.39438765  0.61913167  0.87025598    -0.46200
C719        C  0.40602272  0.60206608  0.87641198    -0.05500
C720        C  0.43720663  0.61975983  0.87931089    -0.22900
H721        H  0.49234419  0.67773854  0.88274911     0.18900
H722        H  0.39526090  0.67225746  0.86224468     0.17700
H723        H  0.43188421  0.73566452  0.86709045     0.14000
H724        H  0.45210585  0.61260309  0.88593139     0.13900
H725        H  0.51377249  0.73907505  0.88442628     0.32000
H726        H  0.37162432  0.61195992  0.86848981     0.34800
C727        C  0.23201018  0.59379010  0.86988183     0.20400
C728        C  0.26042158  0.59707507  0.86846614    -0.39500
C729        C  0.26082595  0.57041109  0.86909366     0.19400
C730        C  0.23492826  0.54232564  0.87110680     0.22000
C731        C  0.20625573  0.53900003  0.87245177    -0.40000
C732        C  0.20580614  0.56588192  0.87165033     0.20800
N733        N  0.22629707  0.61597858  0.87255476    -0.33300
C734        C  0.19624986  0.60243993  0.87589132    -0.10800
C735        C  0.18250996  0.57112076  0.87531096    -0.29600
N736        N  0.24196475  0.52095053  0.87441808    -0.46200
C737        C  0.27251673  0.53581608  0.87480597    -0.05500
C738        C  0.28488411  0.56656681  0.87121246    -0.22900
H739        H  0.28091002  0.61897772  0.86823693     0.18900
H740        H  0.18598748  0.51728833  0.87516125     0.17700
H741        H  0.15921833  0.55459044  0.87928478     0.14000
H742        H  0.30839626  0.58413393  0.87222996     0.13900
H743        H  0.24213614  0.63900708  0.87368632     0.32000
H744        H  0.22706477  0.49821661  0.87826680     0.34800
C745        C  0.97329255  0.36478399  0.12381825     0.20400
C746        C  0.99901460  0.37234816  0.13772606    -0.39500
C747        C  0.02669401  0.38830068  0.12530971     0.19400
C748        C  0.02847569  0.39630629  0.10094252     0.22000
C749        C  0.00279918  0.38864011  0.08705320    -0.40000
C750        C  0.97520939  0.37254042  0.09936893     0.20800
N751        N  0.94511555  0.35370950  0.13218277    -0.33300
C752        C  0.92911093  0.35443523  0.11294741    -0.10800
C753        C  0.94702436  0.36587545  0.09214584    -0.29600
N754        N  0.05717392  0.41559954  0.09447136    -0.46200
C755        C  0.07401847  0.42001856  0.11468383    -0.05500
C756        C  0.05579467  0.40309085  0.13428681    -0.22900
H757        H  0.99772324  0.36789825  0.15717065     0.18900
H758        H  0.00436031  0.39645099  0.06845227     0.17700
H759        H  0.94098936  0.37148158  0.07486940     0.14000
H760        H  0.06245139  0.40460201  0.15323994     0.13900
H761        H  0.93780998  0.34842200  0.15030328     0.32000
H762        H  0.06457688  0.42747819  0.07801449     0.34800
C763        C  0.36993274  0.97783062  0.10090022     0.20400
C764        C  0.39105449  0.00442652  0.08898194    -0.39500
C765        C  0.39641710  0.03131722  0.09953985     0.19400
C766        C  0.38193532  0.03194776  0.12058042     0.22000
C767        C  0.36057655  0.00512166  0.13261023    -0.40000
C768        C  0.35505436  0.97793057  0.12188825     0.20800
N769        N  0.36455831  0.95012275  0.09621186    -0.33300
C770        C  0.34624082  0.93196692  0.11422938    -0.10800
C771        C  0.33929679  0.94841545  0.13049594    -0.29600
N772        N  0.39415950  0.06058355  0.12859788    -0.46200
C773        C  0.41643531  0.07808533  0.11247172    -0.05500
C774        C  0.41843629  0.06051374  0.09420862    -0.22900
H775        H  0.40382637  0.00425142  0.07339000     0.18900
H776        H  0.35037115  0.00546729  0.14978814     0.17700
H777        H  0.32734138  0.94066251  0.14769864     0.14000
H778        H  0.43569636  0.06785628  0.08028613     0.13900
H779        H  0.37487024  0.94436248  0.08264628     0.32000
H780        H  0.38946764  0.06750754  0.14508717     0.34800
C781        C  0.69924181  0.27587880  0.12428255     0.20400
C782        C  0.67366259  0.27725320  0.11951218    -0.39500
C783        C  0.64627497  0.25043513  0.12263537     0.19400
C784        C  0.64418698  0.22393806  0.12992774     0.22000
C785        C  0.67005454  0.22251892  0.13472524    -0.40000
C786        C  0.69779476  0.24968525  0.13167741     0.20800
N787        N  0.72762075  0.29772287  0.12003795    -0.33300
C788        C  0.74472457  0.28572230  0.12458128    -0.10800
C789        C  0.72712757  0.25582840  0.13227783    -0.29600
N790        N  0.61520860  0.20116251  0.12976983    -0.46200
C791        C  0.59919656  0.21358904  0.12214038    -0.05500
C792        C  0.61784919  0.24420687  0.11766744    -0.22900
H793        H  0.67504329  0.29754032  0.11287667     0.18900
H794        H  0.66872283  0.20168788  0.13956281     0.17700
H795        H  0.73444223  0.24009559  0.13558333     0.14000
H796        H  0.61156173  0.25961346  0.11060043     0.13900
H797        H  0.73481906  0.31903565  0.11286589     0.32000
H798        H  0.60702821  0.17850244  0.13348665     0.34800
C799        C  0.97598823  0.61676604  0.90705657     0.20400
C800        C  0.00081709  0.62062041  0.92032823    -0.39500
C801        C  0.02907948  0.63913171  0.90949972     0.19400
C802        C  0.03255874  0.65298349  0.88710876     0.22000
C803        C  0.00758568  0.64872616  0.87360572    -0.40000
C804        C  0.97917142  0.63007532  0.88445247     0.20800
N805        N  0.94685744  0.59697681  0.91191625    -0.33300
C806        C  0.93111889  0.59722013  0.89228870    -0.10800
C807        C  0.95053980  0.61769022  0.87475546    -0.29600
N808        N  0.06144740  0.66657591  0.87958692    -0.46200
C809        C  0.07623549  0.66082206  0.89712325    -0.07900
C810        C  0.05675816  0.64387201  0.91604985    -0.22900
H811        H  0.99817386  0.60860840  0.93720571     0.18900
H812        H  0.00997702  0.65783854  0.85538512     0.17700
H813        H  0.94485695  0.62047211  0.85630391     0.14000
H814        H  0.06166065  0.63404127  0.93144739     0.13900
H815        H  0.93844086  0.58175415  0.92647924     0.32000
H816        H  0.06991669  0.67654313  0.86255989     0.34800
C817        C  0.90097229  0.46429618  0.97512119     0.20400
C818        C  0.90077126  0.43953392  0.98553860    -0.39500
C819        C  0.90022795  0.43829297  0.01119003     0.19400
C820        C  0.90031722  0.46032747  0.02549641     0.22000
C821        C  0.90028030  0.48499578  0.01508386    -0.40000
C822        C  0.90041660  0.48602112  0.98940279     0.20800
N823        N  0.89581211  0.46739942  0.95152537    -0.33300
C824        C  0.89126956  0.49076910  0.95077053    -0.10800
C825        C  0.89423452  0.50312737  0.97400642    -0.29600
N826        N  0.89492919  0.45161022  0.04905466    -0.46200
C827        C  0.89083386  0.42366911  0.04972815    -0.05500
C828        C  0.89409119  0.41468022  0.02647118    -0.22900
H829        H  0.89863463  0.42125958  0.97445374     0.18900
H830        H  0.89777863  0.50085146  0.02613905     0.17700
H831        H  0.88873653  0.51976485  0.97935405     0.14000
H832        H  0.88906516  0.39251043  0.02104635     0.13900
H833        H  0.89180849  0.45223972  0.93737148     0.32000
H834        H  0.89072779  0.46240957  0.06326029     0.34800
C835        C  0.60742173  0.98363490  0.90868865     0.20400
C836        C  0.61244501  0.00990691  0.92026671    -0.39500
C837        C  0.63130518  0.03687460  0.90787406     0.19400
C838        C  0.64406125  0.03776113  0.88540403     0.22000
C839        C  0.63915383  0.01134928  0.87381150    -0.40000
C840        C  0.62047625  0.98421851  0.88642907     0.20800
N841        N  0.58686402  0.95530800  0.91506295    -0.33300
C842        C  0.58659861  0.93744963  0.89689713    -0.10800
C843        C  0.60767317  0.95460164  0.87883206    -0.29600
N844        N  0.65786127  0.06585027  0.87608106    -0.46200
C845        C  0.65399760  0.08280002  0.89289933    -0.05500
C846        C  0.63751078  0.06547447  0.91287082    -0.22900
H847        H  0.60103156  0.00923865  0.93705305     0.18900
H848        H  0.64782653  0.01173051  0.85571184     0.17700
H849        H  0.61042041  0.94685271  0.86118261     0.14000
H850        H  0.62894034  0.07236254  0.92797583     0.13900
H851        H  0.57188612  0.94870654  0.92977930     0.32000
H852        H  0.66733640  0.07258856  0.85866740     0.34800
C853        C  0.54891313  0.11452881  0.02789805     0.20400
C854        C  0.57363102  0.11480199  0.01730739    -0.39500
C855        C  0.57423185  0.11442055  0.99167580     0.19400
C856        C  0.55171184  0.11351360  0.97753335     0.22000
C857        C  0.52705383  0.11345212  0.98812438    -0.40000
C858        C  0.52663305  0.11417888  0.01379718     0.20800
N859        N  0.54610964  0.12013359  0.05145030    -0.33300
C860        C  0.52234244  0.12402632  0.05233107    -0.10800
C861        C  0.50946868  0.12026994  0.02925538    -0.29600
N862        N  0.55999152  0.11839702  0.95386146    -0.46200
C863        C  0.58811003  0.12296756  0.95301390    -0.05500
C864        C  0.59762499  0.12045014  0.97619487    -0.22900
H865        H  0.59228989  0.11762516  0.02819711     0.18900
H866        H  0.51074147  0.11524684  0.97716561     0.17700
H867        H  0.49221555  0.12492102  0.02404117     0.14000
H868        H  0.62003169  0.12607705  0.98141122     0.13900
H869        H  0.56152729  0.12464650  0.06547039     0.32000
H870        H  0.54883082  0.12209332  0.93969416     0.34800
C871        C  0.75125615  0.21207570  0.99167062     0.20400
C872        C  0.75435303  0.21364683  0.01725863    -0.39500
C873        C  0.78033101  0.23908557  0.02649912     0.19400
C874        C  0.80131657  0.26162338  0.01138655     0.22000
C875        C  0.79856326  0.25972900  0.98578558    -0.40000
C876        C  0.77292202  0.23397253  0.97653204     0.20800
N877        N  0.72673074  0.19260975  0.97869824    -0.33300
C878        C  0.73301435  0.20186179  0.95509298    -0.10800
C879        C  0.76176560  0.22736301  0.95300482    -0.29600
N880        N  0.82085149  0.28582269  0.02461584    -0.46200
C881        C  0.81246105  0.27858500  0.04831587    -0.05500
C882        C  0.78762698  0.24939485  0.05024100    -0.22900
H883        H  0.73687461  0.19724858  0.02917436     0.18900
H884        H  0.81423476  0.27789265  0.97399266     0.17700
H885        H  0.77173220  0.24111138  0.93687334     0.14000
H886        H  0.77439249  0.23872882  0.06648659     0.13900
H887        H  0.70624987  0.17534700  0.98565938     0.32000
H888        H  0.83724179  0.30684811  0.01782392     0.34800
C889        C  0.76533397  0.36777676  0.87419456     0.20400
C890        C  0.73689122  0.34157418  0.87549191    -0.39500
C891        C  0.73643920  0.31453630  0.87377430     0.19400
C892        C  0.76230198  0.31347040  0.87059076     0.22000
C893        C  0.79088638  0.33985859  0.86906202    -0.40000
C894        C  0.79140500  0.36709398  0.87107472     0.20800
N895        N  0.77180037  0.39583523  0.87867962    -0.33300
C896        C  0.80218407  0.41335101  0.87859321    -0.10800
C897        C  0.81533528  0.39636767  0.87354130    -0.29600
N898        N  0.75605077  0.28496169  0.87261897    -0.46200
C899        C  0.72619413  0.26816982  0.87754689    -0.05500
C900        C  0.71323340  0.28574847  0.87823251    -0.22900
H901        H  0.71676768  0.34218483  0.87923878     0.18900
H902        H  0.81131335  0.33920653  0.86792156     0.17700
H903        H  0.83905052  0.40397263  0.87364719     0.14000
H904        H  0.69036905  0.27869856  0.88328126     0.13900
H905        H  0.75644802  0.40241781  0.88292334     0.32000
H906        H  0.77143639  0.27777812  0.87277549     0.34800
C907        C  0.38222309  0.36194063  0.88732491     0.20400
C908        C  0.36190499  0.36787520  0.87525364    -0.39500
C909        C  0.35409765  0.38657648  0.88779787     0.19400
C910        C  0.36605609  0.39872401  0.91048434     0.22000
C911        C  0.38618893  0.39272015  0.92253320    -0.40000
C912        C  0.39367347  0.37383650  0.91017026     0.20800
N913        N  0.39607006  0.34812752  0.87812437    -0.33300
C914        C  0.41629575  0.35114640  0.89531050    -0.10800
C915        C  0.41540441  0.36707472  0.91548314    -0.29600
N916        N  0.35941436  0.41961393  0.91674852    -0.46200
C917        C  0.34310760  0.42103539  0.89805198    -0.05500
C918        C  0.33884261  0.40032448  0.87979097    -0.22900
H919        H  0.35414853  0.35998764  0.85684837     0.18900
H920        H  0.39674166  0.40350918  0.93964930     0.17700
H921        H  0.43066409  0.37512919  0.93090474     0.14000
H922        H  0.32942127  0.39849815  0.86178044     0.13900
H923        H  0.39369587  0.33939064  0.86049348     0.32000
H924        H  0.36795981  0.43415263  0.93175137     0.34800
C925        C  0.44716058  0.25585942  0.99361841     0.20400
C926        C  0.44807628  0.25443909  0.01926069    -0.39500
C927        C  0.44695803  0.22885006  0.02889616     0.19400
C928        C  0.44583201  0.20668974  0.01407033     0.22000
C929        C  0.44428295  0.20779965  0.98842985    -0.40000
C930        C  0.44466538  0.23306492  0.97879932     0.20800
N931        N  0.45258909  0.27978039  0.98007592    -0.33300
C932        C  0.45326973  0.27217730  0.95643001    -0.10800
C933        C  0.44786047  0.24295941  0.95489486    -0.29600
N934        N  0.45018786  0.18748766  0.02737246    -0.46200
C935        C  0.45354247  0.19714789  0.05087338    -0.05500
C936        C  0.45130059  0.22267817  0.05255999    -0.22900
H937        H  0.45130544  0.27280789  0.03081457     0.18900
H938        H  0.44465419  0.19116406  0.97676056     0.17700
H939        H  0.44988570  0.23200132  0.93878500     0.14000
H940        H  0.45581216  0.23680309  0.06848554     0.13900
H941        H  0.45802665  0.30089850  0.98663669     0.32000
H942        H  0.45289205  0.17021167  0.02067535     0.34800
C943        C  0.64466927  0.41348224  0.88006277     0.20400
C944        C  0.67074643  0.41312094  0.88514819    -0.39500
C945        C  0.69777707  0.43923119  0.87916253     0.19400
C946        C  0.69918019  0.46408468  0.86854729     0.22000
C947        C  0.67274644  0.46432040  0.86314536    -0.40000
C948        C  0.64533998  0.43800365  0.86948855     0.20800
N949        N  0.61678395  0.39273896  0.88708037    -0.33300
C950        C  0.59912836  0.40384501  0.88135547    -0.10800
C951        C  0.61597911  0.43193549  0.86991023    -0.29600
N952        N  0.72804455  0.48733365  0.86759422    -0.46200
C953        C  0.74454882  0.47691405  0.87813135    -0.05500
C954        C  0.72641229  0.44704999  0.88522361    -0.22900
H955        H  0.67009213  0.39450566  0.89459683     0.18900
H956        H  0.67350732  0.48408910  0.85597542     0.17700
H957        H  0.60823340  0.44670741  0.86425534     0.14000
H958        H  0.73310387  0.43356149  0.89529914     0.13900
H959        H  0.61048411  0.37289861  0.89658116     0.32000
H960        H  0.73566360  0.50936036  0.86203908     0.34800
C961        C  0.53902087  0.24575319  0.87134082     0.20400
C962        C  0.53730817  0.21787884  0.86910261    -0.39500
C963        C  0.56454320  0.21858258  0.87245288     0.19400
C964        C  0.59123576  0.24506152  0.87763794     0.22000
C965        C  0.59298843  0.27269762  0.87968335    -0.40000
C966        C  0.56599990  0.27197169  0.87641103     0.20800
N967        N  0.51606253  0.25085392  0.87209731    -0.33300
C968        C  0.52881757  0.28040809  0.87796574    -0.10800
C969        C  0.55980610  0.29415918  0.88060340    -0.29600
N970        N  0.61315251  0.23967866  0.88282719    -0.46200
C971        C  0.60060573  0.20954278  0.88108445    -0.05500
C972        C  0.57035576  0.19550194  0.87427206    -0.22900
H973        H  0.51614742  0.19702763  0.86627845     0.18900
H974        H  0.61359801  0.29306747  0.88487315     0.17700
H975        H  0.57538675  0.31684575  0.88684350     0.14000
H976        H  0.55436186  0.17159539  0.87263311     0.13900
H977        H  0.49310958  0.23483886  0.87082698     0.32000
H978        H  0.63498171  0.25546810  0.88849226     0.34800
C979        C  0.65084987  0.62980975  0.12033512     0.20400
C980        C  0.64470801  0.64994406  0.13267028    -0.39500
C981        C  0.62376415  0.65565448  0.12137532     0.19400
C982        C  0.60970384  0.64184617  0.09967201     0.22000
C983        C  0.61578589  0.62180111  0.08740989    -0.40000
C984        C  0.63697997  0.61651583  0.09844650     0.20800
N985        N  0.66663068  0.61762284  0.12871828    -0.33300
C986        C  0.66286933  0.59652209  0.11201992    -0.10800
C987        C  0.64456907  0.59537882  0.09289841    -0.29600
N988        N  0.58799651  0.64765154  0.09426805    -0.46200
C989        C  0.58804847  0.66550214  0.11243076    -0.05500
C990        C  0.61030663  0.67121093  0.12965745    -0.22900
H991        H  0.65437793  0.65929940  0.15036396     0.18900
H992        H  0.60367884  0.60992169  0.07107469     0.17700
H993        H  0.63524228  0.57885349  0.07835510     0.14000
H994        H  0.61394693  0.68245650  0.14710269     0.13900
H995        H  0.67689195  0.62135012  0.14582970     0.32000
H996        H  0.57250712  0.63819814  0.07996319     0.34800
C997        C  0.80185314  0.55876197  0.99206626     0.20400
C998        C  0.80048659  0.55986476  0.01772044    -0.39500
C999        C  0.77500363  0.55907148  0.02738526     0.19400
C1000       C  0.75221935  0.55657330  0.01261595     0.22000
C1001       C  0.75396311  0.55624989  0.98695738    -0.40000
C1002       C  0.77978362  0.55778833  0.97728490     0.20800
N1003       N  0.82152315  0.55518813  0.97861898    -0.33300
C1004       C  0.81228850  0.55257237  0.95506436    -0.10800
C1005       C  0.78652247  0.55441775  0.95350732    -0.29600
N1006       N  0.72833041  0.55134014  0.02620564    -0.46200
C1007       C  0.73613450  0.55109442  0.04983295    -0.05500
C1008       C  0.76522793  0.55619739  0.05129296    -0.22900
H1009       H  0.81720857  0.55968118  0.02935053     0.18900
H1010       H  0.73577433  0.55334629  0.97538630     0.17700
H1011       H  0.77277634  0.55052010  0.93746926     0.14000
H1012       H  0.77641764  0.55480487  0.06747167     0.13900
H1013       H  0.83899973  0.55277013  0.98518568     0.32000
H1014       H  0.70736008  0.54642207  0.01974843     0.34800
C1015       C  0.57712521  0.47620870  0.01933909     0.20400
C1016       C  0.57681870  0.47795424  0.99369466    -0.39500
C1017       C  0.55347611  0.45266136  0.98174485     0.19400
C1018       C  0.53241110  0.42732940  0.99442926     0.22000
C1019       C  0.53273480  0.42555610  0.02002543    -0.40000
C1020       C  0.55571258  0.45101698  0.03197376     0.20800
N1021       N  0.59932037  0.49519913  0.03446236    -0.33300
C1022       C  0.59197815  0.48205900  0.05681889    -0.10800
C1023       C  0.56484347  0.45458843  0.05601539    -0.29600
N1024       N  0.51560526  0.40468559  0.97890426    -0.46200
C1025       C  0.52577945  0.41557397  0.95615568    -0.05500
C1026       C  0.54926646  0.44552892  0.95714571    -0.22900
H1027       H  0.59450558  0.49686856  0.98370006     0.18900
H1028       H  0.51734445  0.40512641  0.02981146     0.17700
H1029       H  0.55515666  0.43782921  0.07036228     0.14000
H1030       H  0.56371698  0.45894743  0.94221739     0.13900
H1031       H  0.61969107  0.51431055  0.02943222     0.32000
H1032       H  0.50010143  0.38234657  0.98358060     0.34800
C1033       C  0.59201495  0.36618067  0.13218355     0.20400
C1034       C  0.59314991  0.33989865  0.13145070    -0.39500
C1035       C  0.56539874  0.31283726  0.13220923     0.19400
C1036       C  0.53825809  0.31170834  0.13367603     0.22000
C1037       C  0.53711107  0.33823457  0.13440073    -0.40000
C1038       C  0.56512937  0.36557218  0.13364249     0.20800
N1039       N  0.61527144  0.39439548  0.12925349    -0.33300
C1040       C  0.60348111  0.41226569  0.12877037    -0.10800
C1041       C  0.57219453  0.39516342  0.13170610    -0.29600
N1042       N  0.51505850  0.28298823  0.13152021    -0.46200
C1043       C  0.52783692  0.26610913  0.12840256    -0.05500
C1044       C  0.55906061  0.28397450  0.12882640    -0.22900
H1045       H  0.61413190  0.34047954  0.12923659     0.18900
H1046       H  0.51600510  0.33764566  0.13446400     0.17700
H1047       H  0.55661663  0.40302353  0.13071349     0.14000
H1048       H  0.57499652  0.27696262  0.12524584     0.13900
H1049       H  0.63774968  0.40094528  0.12647079     0.32000
H1050       H  0.49222188  0.27566496  0.13027618     0.34800
C1051       C  0.74178173  0.44697575  0.12947087     0.20400
C1052       C  0.73967796  0.41948668  0.12494098    -0.39500
C1053       C  0.76670907  0.41989485  0.12575027     0.19400
C1054       C  0.79404577  0.44566304  0.13081135     0.22000
C1055       C  0.79616010  0.47340768  0.13547476    -0.40000
C1056       C  0.76885570  0.47305812  0.13461672     0.20800
N1057       N  0.71980217  0.45283814  0.12650268    -0.33300
C1058       C  0.73255705  0.48285564  0.12961040    -0.10800
C1059       C  0.76316400  0.49637585  0.13509720    -0.29600
N1060       N  0.81667237  0.44024464  0.12838786    -0.46200
C1061       C  0.80334878  0.41093961  0.12146724    -0.05500
C1062       C  0.77228437  0.39763735  0.11982278    -0.22900
H1063       H  0.71865211  0.39949991  0.11987774     0.18900
H1064       H  0.81756766  0.49395795  0.13838289     0.17700
H1065       H  0.77952438  0.52020428  0.13658999     0.14000
H1066       H  0.75602534  0.37498780  0.11393923     0.13900
H1067       H  0.69781692  0.43763236  0.12077072     0.32000
H1068       H  0.83969779  0.45576853  0.13013261     0.34800
C1069       C  0.67515478  0.16642803  0.72975470     0.20400
C1070       C  0.69228371  0.17402877  0.75131418    -0.39500
C1071       C  0.67605192  0.16710171  0.77335726     0.19400
C1072       C  0.64510724  0.15391729  0.77392624     0.22000
C1073       C  0.62788786  0.14590659  0.75234791    -0.40000
C1074       C  0.64412254  0.15252251  0.73028325     0.20800
N1075       N  0.68532777  0.17098436  0.70653431    -0.33300
C1076       C  0.66058807  0.15951820  0.69211039    -0.10800
C1077       C  0.63444771  0.14769935  0.70627122    -0.29600
N1078       N  0.63516570  0.15019666  0.79719920    -0.46200
C1079       C  0.65992092  0.16074383  0.81157121    -0.05500
C1080       C  0.68581543  0.17139303  0.79731945    -0.22900
H1081       H  0.71651660  0.18461591  0.75095595     0.18900
H1082       H  0.60365093  0.13532823  0.75270432     0.17700
H1083       H  0.61150735  0.13738323  0.69982339     0.14000
H1084       H  0.70873105  0.18113381  0.80366130     0.13900
H1085       H  0.70769901  0.18105906  0.70083383     0.32000
H1086       H  0.61288606  0.14075070  0.80296880     0.34800
C1087       C  0.85474120  0.36282149  0.27356283     0.20400
C1088       C  0.86331076  0.38134233  0.25273657    -0.39500
C1089       C  0.85812644  0.36657537  0.23011832     0.19400
C1090       C  0.84582094  0.33579399  0.22844448     0.22000
C1091       C  0.83709876  0.31727959  0.24925837    -0.40000
C1092       C  0.84181927  0.33196119  0.27184291     0.20800
N1093       N  0.85744370  0.37134693  0.29711902    -0.33300
C1094       C  0.84600021  0.34573782  0.31051050    -0.10800
C1095       C  0.83577107  0.32065168  0.29537614    -0.29600
N1096       N  0.84290903  0.32715150  0.20490972    -0.46200
C1097       C  0.85298839  0.35249544  0.19142276    -0.05500
C1098       C  0.86274866  0.37759467  0.20650905    -0.22900
H1099       H  0.87305760  0.40543035  0.25404417     0.18900
H1100       H  0.82713081  0.29316390  0.24794638     0.17700
H1101       H  0.82586262  0.29739957  0.30087876     0.14000
H1102       H  0.87177479  0.40070227  0.20094049     0.13900
H1103       H  0.86654040  0.39325524  0.30370993     0.32000
H1104       H  0.83400909  0.30523925  0.19839611     0.34800
C1105       C  0.76896900  0.23256607  0.52650400     0.20400
C1106       C  0.79400029  0.25873857  0.51694663    -0.39500
C1107       C  0.79671826  0.26027461  0.49132738     0.19400
C1108       C  0.77603231  0.23744097  0.47630683     0.22000
C1109       C  0.75072807  0.21147904  0.48585241    -0.40000
C1110       C  0.74801631  0.20992195  0.51149953     0.20800
N1111       N  0.75948507  0.22753405  0.54990915    -0.33300
C1112       C  0.73222477  0.20163481  0.54996968    -0.10800
C1113       C  0.72429182  0.19005220  0.52626980    -0.29600
N1114       N  0.78141829  0.24597767  0.45268809    -0.46200
C1115       C  0.80548267  0.27450979  0.45259357    -0.05500
C1116       C  0.81562356  0.28417198  0.47638799    -0.22900
H1117       H  0.80930588  0.27732207  0.52856158     0.18900
H1118       H  0.73350831  0.19452761  0.47411006     0.17700
H1119       H  0.70280938  0.17134618  0.52032494     0.14000
H1120       H  0.83238494  0.30672595  0.48213735     0.13900
H1121       H  0.76956699  0.24230941  0.56460458     0.32000
H1122       H  0.76766233  0.23436719  0.43778880     0.34800
C1123       C  0.85347717  0.51469823  0.72838235     0.20400
C1124       C  0.85982009  0.50337009  0.74932376    -0.39500
C1125       C  0.85453042  0.51284104  0.77183063     0.19400
C1126       C  0.84395052  0.53232052  0.77341371     0.22000
C1127       C  0.83711386  0.54327162  0.75244136    -0.40000
C1128       C  0.84216786  0.53357452  0.72988454     0.20800
N1129       N  0.85735171  0.50967580  0.70489947    -0.33300
C1130       C  0.84808932  0.52511995  0.69126059    -0.10800
C1131       C  0.83830076  0.54019917  0.70619656    -0.29600
N1132       N  0.84177541  0.53862674  0.79696460    -0.46200
C1133       C  0.85078849  0.52281689  0.81044036    -0.05500
C1134       C  0.85877189  0.50637070  0.79539004    -0.22900
H1135       H  0.86852768  0.48849599  0.74817814     0.18900
H1136       H  0.82873564  0.55842191  0.75359333     0.17700
H1137       H  0.83001051  0.55450012  0.70047950     0.14000
H1138       H  0.86695756  0.49193008  0.80095938     0.13900
H1139       H  0.86567977  0.49644547  0.69851805     0.32000
H1140       H  0.83454716  0.55272655  0.80347428     0.34800
C1141       C  0.88953111  0.45400031  0.47572966     0.20400
C1142       C  0.89189984  0.48039888  0.48462358    -0.39500
C1143       C  0.89211424  0.48303073  0.51009822     0.19400
C1144       C  0.89116290  0.46145965  0.52558157     0.22000
C1145       C  0.88836496  0.43485700  0.51668104    -0.40000
C1146       C  0.88707996  0.43175042  0.49122121     0.20800
N1147       N  0.88352410  0.44403189  0.45261948    -0.33300
C1148       C  0.87600325  0.41496130  0.45359092    -0.10800
C1149       C  0.87828027  0.40649928  0.47724571    -0.29600
N1150       N  0.88683096  0.46674444  0.54876020    -0.46200
C1151       C  0.88359627  0.49089676  0.54786591    -0.05500
C1152       C  0.88724064  0.50204226  0.52417023    -0.22900
H1153       H  0.89081388  0.49635039  0.47262399     0.18900
H1154       H  0.88464401  0.41673287  0.52874030     0.17700
H1155       H  0.87157443  0.38417842  0.48366135     0.14000
H1156       H  0.88318183  0.51930176  0.51773604     0.13900
H1157       H  0.88126047  0.45514850  0.43762604     0.32000
H1158       H  0.88220322  0.45243278  0.56368659     0.34800
C1159       C  0.76474199  0.37121974  0.62240608     0.20400
C1160       C  0.73625916  0.34554709  0.61980571    -0.39500
C1161       C  0.73458160  0.31825800  0.62382371     0.19400
C1162       C  0.75936167  0.31627425  0.62973601     0.22000
C1163       C  0.78808554  0.34226992  0.63274980    -0.40000
C1164       C  0.78974477  0.36991749  0.62901072     0.20800
N1165       N  0.77231805  0.39943276  0.61730761    -0.33300
C1166       C  0.80227406  0.41657405  0.62101780    -0.10800
C1167       C  0.81413686  0.39917830  0.62855865    -0.29600
N1168       N  0.75195457  0.28722978  0.62969731    -0.46200
C1169       C  0.72232570  0.27107291  0.62363287    -0.05500
C1170       C  0.71085052  0.28972733  0.62020814    -0.22900
H1171       H  0.71698226  0.34668318  0.61400424     0.18900
H1172       H  0.80779769  0.34105182  0.63673069     0.17700
H1173       H  0.83754414  0.40662983  0.63162523     0.14000
H1174       H  0.68855549  0.28340086  0.61401867     0.13900
H1175       H  0.75813921  0.40652994  0.61080931     0.32000
H1176       H  0.76642667  0.27914025  0.63210617     0.34800
C1177       C  0.48504190  0.14935699  0.27637185     0.20400
C1178       C  0.49544231  0.14093969  0.25591510    -0.39500
C1179       C  0.48976297  0.14921263  0.23302790     0.19400
C1180       C  0.47445755  0.16430098  0.23073904     0.22000
C1181       C  0.46424517  0.17291225  0.25122282    -0.40000
C1182       C  0.47027364  0.16498235  0.27413767     0.20800
N1183       N  0.48832772  0.14477741  0.30005000    -0.33300
C1184       C  0.47589170  0.15782082  0.31310656    -0.10800
C1185       C  0.46432501  0.17066939  0.29756735    -0.29600
N1186       N  0.47171162  0.16937090  0.20703787    -0.46200
C1187       C  0.48573175  0.15786099  0.19409636    -0.05500
C1188       C  0.49733174  0.14510026  0.20968803    -0.22900
H1189       H  0.50737477  0.12910246  0.25771601     0.18900
H1190       H  0.45270623  0.18514039  0.24944498     0.17700
H1191       H  0.45339233  0.18279156  0.30271029     0.14000
H1192       H  0.50934145  0.13402904  0.20461210     0.13900
H1193       H  0.49900624  0.13398107  0.30694441     0.32000
H1194       H  0.46119686  0.18028964  0.20006359     0.34800
C1195       C  0.54722807  0.12146917  0.47718533     0.20400
C1196       C  0.57178420  0.12020995  0.48610540    -0.39500
C1197       C  0.57366659  0.11924593  0.51160080     0.19400
C1198       C  0.55209061  0.11847847  0.52704155     0.22000
C1199       C  0.52763294  0.11985274  0.51810809    -0.40000
C1200       C  0.52633251  0.12188957  0.49268979     0.20800
N1201       N  0.54349836  0.12794868  0.45421029    -0.33300
C1202       C  0.52085188  0.13354458  0.45534837    -0.10800
C1203       C  0.50933814  0.12970265  0.47892024    -0.29600
N1204       N  0.56146333  0.12273468  0.55032221    -0.46200
C1205       C  0.58959082  0.12748287  0.54956584    -0.05500
C1206       C  0.59784881  0.12499402  0.52585362    -0.22900
H1207       H  0.58960547  0.12271349  0.47419893     0.18900
H1208       H  0.51237992  0.12208895  0.53017897     0.17700
H1209       H  0.49264778  0.13456303  0.48544959     0.14000
H1210       H  0.61984604  0.13033499  0.51958631     0.13900
H1211       H  0.55747399  0.13145635  0.43923317     0.32000
H1212       H  0.55111566  0.12627102  0.56527607     0.34800
C1213       C  0.68943283  0.27147046  0.37075180     0.20400
C1214       C  0.66353197  0.27327775  0.37153286    -0.39500
C1215       C  0.63619524  0.24583472  0.37117763     0.19400
C1216       C  0.63455494  0.21843229  0.36982067     0.22000
C1217       C  0.66067000  0.21662185  0.36896795    -0.40000
C1218       C  0.68826846  0.24429125  0.36954381     0.20800
N1219       N  0.71768610  0.29422862  0.37421773    -0.33300
C1220       C  0.73497998  0.28183127  0.37552176    -0.10800
C1221       C  0.71754468  0.25064398  0.37227050    -0.29600
N1222       N  0.60582948  0.19564123  0.37251014    -0.46200
C1223       C  0.58946640  0.20888297  0.37593122    -0.05500
C1224       C  0.60759604  0.24005535  0.37516548    -0.22900
H1225       H  0.66462385  0.29450516  0.37381201     0.18900
H1226       H  0.65958347  0.19527298  0.36926200     0.17700
H1227       H  0.72480670  0.23464096  0.37395785     0.14000
H1228       H  0.60100214  0.25629246  0.37882908     0.13900
H1229       H  0.72450070  0.31673811  0.37723956     0.32000
H1230       H  0.59818226  0.17273319  0.37388968     0.34800
C1231       C  0.49549536  0.35928106  0.73134248     0.20400
C1232       C  0.50696262  0.37739978  0.75235239    -0.39500
C1233       C  0.49730556  0.36218685  0.77483728     0.19400
C1234       C  0.47746524  0.33140212  0.77620684     0.22000
C1235       C  0.46623305  0.31333348  0.75523443    -0.40000
C1236       C  0.47617662  0.32842425  0.73280931     0.20800
N1237       N  0.50113494  0.36812370  0.70783064    -0.33300
C1238       C  0.48556368  0.34264544  0.69430204    -0.10800
C1239       C  0.46982483  0.31743565  0.70923242    -0.29600
N1240       N  0.47162697  0.32229223  0.79962079    -0.46200
C1241       C  0.48808606  0.34734782  0.81335140    -0.05500
C1242       C  0.50445336  0.37272435  0.79855421    -0.22900
H1243       H  0.52235501  0.40148850  0.75127392     0.18900
H1244       H  0.45098524  0.28922693  0.75630639     0.17700
H1245       H  0.45540416  0.29426414  0.70357541     0.14000
H1246       H  0.51950665  0.39572044  0.80438124     0.13900
H1247       H  0.51491076  0.39007091  0.70136670     0.32000
H1248       H  0.45760199  0.30029491  0.80588658     0.34800
C1249       C  0.43462522  0.20968369  0.48858032     0.20400
C1250       C  0.42840961  0.20788323  0.51388483    -0.39500
C1251       C  0.43457305  0.23487233  0.52530220     0.19400
C1252       C  0.44623884  0.26152937  0.51237978     0.22000
C1253       C  0.45223337  0.26327377  0.48724506    -0.40000
C1254       C  0.44591810  0.23646452  0.47591026     0.20800
N1255       N  0.43534554  0.18879478  0.47433794    -0.33300
C1256       C  0.44717261  0.20256544  0.45258498    -0.10800
C1257       C  0.45384942  0.23216767  0.45296129    -0.29600
N1258       N  0.45498235  0.28485677  0.52764159    -0.46200
C1259       C  0.44895425  0.27340699  0.55059651    -0.05500
C1260       C  0.43586436  0.24213629  0.54991445    -0.22900
H1261       H  0.42128992  0.18752385  0.52422694     0.18900
H1262       H  0.46309237  0.28450442  0.47753903     0.17700
H1263       H  0.46609275  0.24925539  0.43919977     0.14000
H1264       H  0.43160187  0.22738128  0.56532011     0.13900
H1265       H  0.43093895  0.16764601  0.47982418     0.32000
H1266       H  0.46714109  0.30763208  0.52288701     0.34800
C1267       C  0.64127092  0.41588624  0.62655685     0.20400
C1268       C  0.66670999  0.41396556  0.62254550    -0.39500
C1269       C  0.69418231  0.44108429  0.62408915     0.19400
C1270       C  0.69645548  0.46831561  0.62901661     0.22000
C1271       C  0.67077881  0.47023882  0.63298064    -0.40000
C1272       C  0.64304977  0.44285464  0.63173592     0.20800
N1273       N  0.61268022  0.39368625  0.62374156    -0.33300
C1274       C  0.59593537  0.40634415  0.62724913    -0.10800
C1275       C  0.61390435  0.43695905  0.63249648    -0.29600
N1276       N  0.72534270  0.49109909  0.62747485    -0.46200
C1277       C  0.74114908  0.47794914  0.62132943    -0.05500
C1278       C  0.72246208  0.44686820  0.61927942    -0.22900
H1279       H  0.66516715  0.39301711  0.61768063     0.18900
H1280       H  0.67221573  0.49151678  0.63598940     0.17700
H1281       H  0.60682347  0.45310012  0.63429981     0.14000
H1282       H  0.72856058  0.43078057  0.61363539     0.13900
H1283       H  0.60506677  0.37164256  0.61817906     0.32000
H1284       H  0.73350239  0.51408770  0.62913965     0.34800
C1285       C  0.53635560  0.24227344  0.63272569     0.20400
C1286       C  0.53256645  0.21342008  0.63433441    -0.39500
C1287       C  0.55925492  0.21258730  0.63399202     0.19400
C1288       C  0.58732027  0.23859461  0.63211266     0.22000
C1289       C  0.59105087  0.26714492  0.63055439    -0.40000
C1290       C  0.56464522  0.26793814  0.63090202     0.20800
N1291       N  0.51486622  0.24925615  0.63012634    -0.33300
C1292       C  0.52989012  0.27945087  0.62627109    -0.10800
C1293       C  0.56086730  0.29175504  0.62689447    -0.29600
N1294       N  0.60885114  0.23209041  0.62901467    -0.46200
C1295       C  0.59479966  0.20176667  0.62885344    -0.05500
C1296       C  0.56377302  0.18858978  0.63217834    -0.22900
H1297       H  0.51052497  0.19312320  0.63460115     0.18900
H1298       H  0.61293682  0.28723215  0.62791719     0.17700
H1299       H  0.57832492  0.31482803  0.62327505     0.14000
H1300       H  0.54670190  0.16493358  0.63097702     0.13900
H1301       H  0.49163538  0.23427882  0.62933717     0.32000
H1302       H  0.63158698  0.24736124  0.62540317     0.34800
C1303       C  0.68398515  0.53670500  0.27692983     0.20400
C1304       C  0.70130708  0.54733983  0.25542941    -0.39500
C1305       C  0.68514867  0.53800957  0.23334982     0.19400
C1306       C  0.65415587  0.51932031  0.23279535     0.22000
C1307       C  0.63683506  0.50901498  0.25425073    -0.40000
C1308       C  0.65294218  0.51853218  0.27627741     0.20800
N1309       N  0.69387625  0.54214261  0.30020517    -0.33300
C1310       C  0.66888998  0.52765242  0.31443022    -0.10800
C1311       C  0.64295778  0.51269776  0.30014806    -0.29600
N1312       N  0.64421281  0.51282676  0.20962287    -0.46200
C1313       C  0.66897055  0.52759879  0.19522360    -0.05500
C1314       C  0.69495838  0.54375298  0.20935129    -0.22900
H1315       H  0.72556810  0.56167564  0.25585648     0.18900
H1316       H  0.61258811  0.49452134  0.25382268     0.17700
H1317       H  0.61991092  0.49924943  0.30642160     0.14000
H1318       H  0.71793031  0.55729030  0.20293190     0.13900
H1319       H  0.71617221  0.55519630  0.30606161     0.32000
H1320       H  0.62192755  0.49906798  0.20393313     0.34800
C1321       C  0.76010294  0.57219561  0.49121205     0.20400
C1322       C  0.76271795  0.57457671  0.51685266    -0.39500
C1323       C  0.78733157  0.57412082  0.52697344     0.19400
C1324       C  0.80749567  0.57099150  0.51260974     0.22000
C1325       C  0.80512249  0.56904369  0.48701263    -0.40000
C1326       C  0.78085668  0.56997836  0.47689992     0.20800
N1327       N  0.73631563  0.56715290  0.47761906    -0.33300
C1328       C  0.74217341  0.56202984  0.45450909    -0.10800
C1329       C  0.76978258  0.56376883  0.45337745    -0.29600
N1330       N  0.82513996  0.56518101  0.52657809    -0.46200
C1331       C  0.81648309  0.56483369  0.55003713    -0.05500
C1332       C  0.79316622  0.57067489  0.55102158    -0.22900
H1333       H  0.74563653  0.57455698  0.52820961     0.18900
H1334       H  0.81980782  0.56484203  0.47589464     0.17700
H1335       H  0.77879078  0.55774405  0.43802524     0.14000
H1336       H  0.77953653  0.56839970  0.56680908     0.13900
H1337       H  0.71618098  0.56458194  0.48404741     0.32000
H1338       H  0.83991033  0.55862487  0.52038951     0.34800
C1339       C  0.58329658  0.48197369  0.49506140     0.20400
C1340       C  0.58242129  0.48049778  0.52065877    -0.39500
C1341       C  0.55677840  0.45566757  0.53078075     0.19400
C1342       C  0.53392440  0.43369206  0.51644117     0.22000
C1343       C  0.53418918  0.43589628  0.49092470    -0.40000
C1344       C  0.55961109  0.46090827  0.48082305     0.20800
N1345       N  0.60761069  0.49921012  0.48111791    -0.33300
C1346       C  0.59909715  0.48910478  0.45796659    -0.10800
C1347       C  0.56918181  0.46586150  0.45695772    -0.29600
N1348       N  0.51581961  0.40913508  0.52981290    -0.46200
C1349       C  0.52711323  0.41574349  0.55275917    -0.05500
C1350       C  0.55210646  0.44476281  0.55425728    -0.22900
H1351       H  0.60154421  0.49588706  0.53176359     0.18900
H1352       H  0.51727816  0.41796032  0.47964381     0.17700
H1353       H  0.55750499  0.45168480  0.44137841     0.14000
H1354       H  0.56717463  0.45479417  0.56966930     0.13900
H1355       H  0.62931209  0.51481716  0.48718770     0.32000
H1356       H  0.49858063  0.38832612  0.52334982     0.34800
C1357       C  0.58625189  0.37020704  0.37575168     0.20400
C1358       C  0.58743763  0.34413555  0.37262952    -0.39500
C1359       C  0.55980992  0.31690716  0.37372110     0.19400
C1360       C  0.53280474  0.31539629  0.37788791     0.22000
C1361       C  0.53162073  0.34167835  0.38109283    -0.40000
C1362       C  0.55941280  0.36916642  0.37967274     0.20800
N1363       N  0.60976927  0.39854333  0.37732905    -0.33300
C1364       C  0.59804553  0.41594461  0.38201070    -0.10800
C1365       C  0.56667821  0.39852657  0.38360649    -0.29600
N1366       N  0.51025117  0.28646451  0.38069313    -0.46200
C1367       C  0.52330538  0.26972806  0.37849567    -0.05500
C1368       C  0.55404232  0.28803380  0.37389636    -0.22900
H1369       H  0.60853180  0.34493796  0.37042989     0.18900
H1370       H  0.51081035  0.34077961  0.38521413     0.17700
H1371       H  0.55150578  0.40607886  0.38855104     0.14000
H1372       H  0.57048024  0.28125322  0.37293261     0.13900
H1373       H  0.63255122  0.40553753  0.37633458     0.32000
H1374       H  0.48807301  0.27885603  0.38583109     0.34800
C1375       C  0.76527032  0.47302197  0.37422670     0.20400
C1376       C  0.79350783  0.47542256  0.37340122    -0.39500
C1377       C  0.79284271  0.44800882  0.37253019     0.19400
C1378       C  0.76606317  0.42046213  0.37288076     0.22000
C1379       C  0.73804708  0.41807565  0.37348218    -0.40000
C1380       C  0.73873805  0.44528423  0.37403254     0.20800
N1381       N  0.75952836  0.49527730  0.37770548    -0.33300
C1382       C  0.72916002  0.48127871  0.37988062    -0.10800
C1383       C  0.71558825  0.45024137  0.37738815    -0.29600
N1384       N  0.77118827  0.39786012  0.37513594    -0.46200
C1385       C  0.80141346  0.41085834  0.37592276    -0.05500
C1386       C  0.81584157  0.44211732  0.37416359    -0.22900
H1387       H  0.81439257  0.49691326  0.37447755     0.18900
H1388       H  0.71720262  0.39654162  0.37467431     0.17700
H1389       H  0.69199050  0.43334510  0.37958471     0.14000
H1390       H  0.83964767  0.45832802  0.37613010     0.13900
H1391       H  0.77525414  0.51814194  0.38018287     0.32000
H1392       H  0.75509489  0.37507229  0.37753373     0.34800
C1393       C  0.52817353  0.69118799  0.23369923     0.20400
C1394       C  0.53529426  0.70811441  0.25534817    -0.39500
C1395       C  0.52590691  0.69143034  0.27715369     0.19400
C1396       C  0.51022223  0.66027421  0.27737425     0.22000
C1397       C  0.50343106  0.64338308  0.25576328    -0.40000
C1398       C  0.51316021  0.66006360  0.23399884     0.20800
N1399       N  0.53411307  0.70157978  0.21057664    -0.33300
C1400       C  0.52302785  0.67685628  0.19611197    -0.10800
C1401       C  0.50992714  0.65059749  0.21007320    -0.29600
N1402       N  0.50368226  0.64976806  0.30042224    -0.46200
C1403       C  0.51574045  0.67443563  0.31498405    -0.05500
C1404       C  0.52980178  0.70082072  0.30116365    -0.22900
H1405       H  0.54729260  0.73245799  0.25523455     0.18900
H1406       H  0.49145673  0.61904022  0.25587847     0.17700
H1407       H  0.49881042  0.62762338  0.20353062     0.14000
H1408       H  0.54146429  0.72375698  0.30783351     0.13900
H1409       H  0.54475327  0.72401867  0.20497760     0.32000
H1410       H  0.49244355  0.62727097  0.30594224     0.34800
C1411       C  0.61551327  0.65113230  0.40669893     0.20400
C1412       C  0.62309294  0.63332367  0.42053582    -0.39500
C1413       C  0.64091710  0.62411719  0.40868014     0.19400
C1414       C  0.65103002  0.63245568  0.38489237     0.22000
C1415       C  0.64324361  0.65015930  0.37094530    -0.40000
C1416       C  0.62491495  0.65897119  0.38269771     0.20800
N1417       N  0.59495143  0.65836184  0.41259546    -0.33300
C1418       C  0.59071292  0.67045674  0.39222279    -0.10800
C1419       C  0.60911228  0.67137831  0.37316432    -0.29600
N1420       N  0.66387022  0.61724755  0.37669872    -0.46200
C1421       C  0.66120977  0.59859418  0.39515297    -0.05500
C1422       C  0.64721047  0.60245124  0.41541948    -0.22900
H1423       H  0.61380681  0.62525833  0.43859207     0.18900
H1424       H  0.64911212  0.65478522  0.35177895     0.17700
H1425       H  0.60868921  0.67739299  0.35428097     0.14000
H1426       H  0.63971409  0.58887259  0.43185936     0.13900
H1427       H  0.58232676  0.65267597  0.42871788     0.32000
H1428       H  0.67083397  0.61702965  0.35879928     0.34800
C1429       C  0.32601028  0.85097098  0.28057365     0.20400
C1430       C  0.30748333  0.84383726  0.25991628    -0.39500
C1431       C  0.32222519  0.85029752  0.23721894     0.19400
C1432       C  0.35306827  0.86311103  0.23531447     0.22000
C1433       C  0.37151663  0.86990357  0.25593753    -0.40000
C1434       C  0.35676988  0.86326574  0.27859922     0.20800
N1435       N  0.31760339  0.84735923  0.30419066    -0.33300
C1436       C  0.34317199  0.85722368  0.31730372    -0.10800
C1437       C  0.36805007  0.86723227  0.30198865    -0.29600
N1438       N  0.36166044  0.86721657  0.21176487    -0.46200
C1439       C  0.33610445  0.85665692  0.19853881    -0.05500
C1440       C  0.31098766  0.84582000  0.21374134    -0.22900
H1441       H  0.28339836  0.83399621  0.26140695     0.18900
H1442       H  0.39559116  0.87967298  0.25444297     0.17700
H1443       H  0.39127541  0.87649315  0.30728088     0.14000
H1444       H  0.28771022  0.83590255  0.20833165     0.13900
H1445       H  0.29583548  0.83868900  0.31097688     0.32000
H1446       H  0.38349873  0.87606198  0.20507142     0.34800
C1447       C  0.36357988  0.97903879  0.40917347     0.20400
C1448       C  0.38018101  0.00580942  0.42257014    -0.39500
C1449       C  0.38717792  0.03238732  0.41031878     0.19400
C1450       C  0.37828075  0.03242191  0.38647226     0.22000
C1451       C  0.36179768  0.00558680  0.37299626    -0.40000
C1452       C  0.35478278  0.97893427  0.38526379     0.20800
N1453       N  0.35787585  0.95159860  0.41558951    -0.33300
C1454       C  0.34546767  0.93382314  0.39568627    -0.10800
C1455       C  0.34307120  0.95002851  0.37640686    -0.29600
N1456       N  0.39156304  0.06078692  0.37782303    -0.46200
C1457       C  0.40942489  0.07888097  0.39611262    -0.05500
C1458       C  0.40701834  0.06191096  0.41669696    -0.22900
H1459       H  0.38875187  0.00611014  0.44066842     0.18900
H1460       H  0.35650261  0.00564422  0.35386262     0.17700
H1461       H  0.33644323  0.94244986  0.35776348     0.14000
H1462       H  0.42072172  0.06982955  0.43304454     0.13900
H1463       H  0.36443134  0.94592056  0.43176704     0.32000
H1464       H  0.39129486  0.06712343  0.35973962     0.34800
C1465       C  0.43783968  0.79864070  0.37767491     0.20400
C1466       C  0.46503452  0.80006220  0.37187951    -0.39500
C1467       C  0.46520037  0.77326157  0.37552481     0.19400
C1468       C  0.44010279  0.74732336  0.38421869     0.22000
C1469       C  0.41319830  0.74587831  0.38979779    -0.40000
C1470       C  0.41311097  0.77237525  0.38627108     0.20800
N1471       N  0.43233891  0.82136122  0.37819203    -0.33300
C1472       C  0.40408203  0.80915483  0.38750813    -0.10800
C1473       C  0.39149593  0.77869019  0.39246006    -0.29600
N1474       N  0.44649687  0.72604883  0.38896493    -0.46200
C1475       C  0.47590046  0.73814741  0.38346822    -0.05500
C1476       C  0.48845698  0.76750776  0.37460081    -0.22900
H1477       H  0.48492633  0.82076462  0.36611635     0.18900
H1478       H  0.39412312  0.72590716  0.39756784     0.17700
H1479       H  0.36989149  0.76348052  0.40079985     0.14000
H1480       H  0.51183958  0.78326880  0.37025656     0.13900
H1481       H  0.44731463  0.84390653  0.37379090     0.32000
H1482       H  0.43213473  0.70506694  0.39695594     0.34800
C1483       C  0.14178918  0.49409925  0.23398010     0.20400
C1484       C  0.13306940  0.50360284  0.25480713    -0.39500
C1485       C  0.14082882  0.49672241  0.27741855     0.19400
C1486       C  0.15564002  0.48107695  0.27912198     0.22000
C1487       C  0.16471466  0.47194194  0.25828167    -0.40000
C1488       C  0.15739190  0.47924928  0.23566097     0.20800
N1489       N  0.13733289  0.49814384  0.21044050    -0.33300
C1490       C  0.15047206  0.48611216  0.19698237    -0.10800
C1491       C  0.16337923  0.47423093  0.21207042    -0.29600
N1492       N  0.16042111  0.47733371  0.30266825    -0.46200
C1493       C  0.14919633  0.49126312  0.31606428    -0.05500
C1494       C  0.13669678  0.50356907  0.30096851    -0.22900
H1495       H  0.12138539  0.51573564  0.25349143     0.18900
H1496       H  0.17683683  0.46025031  0.25959018     0.17700
H1497       H  0.17546041  0.46339523  0.20652450     0.14000
H1498       H  0.12605567  0.51584794  0.30649555     0.13900
H1499       H  0.12645088  0.50890023  0.20390621     0.32000
H1500       H  0.17125715  0.46654646  0.30923160     0.34800
C1501       C  0.96907645  0.37580855  0.40734864     0.20400
C1502       C  0.99563300  0.39416170  0.42056542    -0.39500
C1503       C  0.02245997  0.40009127  0.40931690     0.19400
C1504       C  0.02291919  0.38888339  0.38644519     0.22000
C1505       C  0.99624144  0.37020644  0.37331651    -0.40000
C1506       C  0.96928417  0.36391173  0.38472917     0.20800
N1507       N  0.94151162  0.37067863  0.41248137    -0.33300
C1508       C  0.92382691  0.35518987  0.39317887    -0.10800
C1509       C  0.94025436  0.35016413  0.37560655    -0.29600
N1510       N  0.05143280  0.40166870  0.37816696    -0.46200
C1511       C  0.06923330  0.42093021  0.39595764    -0.05500
C1512       C  0.05189499  0.42046922  0.41563460    -0.22900
H1513       H  0.99558491  0.40465537  0.43767144     0.18900
H1514       H  0.99658219  0.36264246  0.35492729     0.17700
H1515       H  0.93283473  0.34082664  0.35748522     0.14000
H1516       H  0.05956985  0.43554364  0.43120314     0.13900
H1517       H  0.93558898  0.37919679  0.42735873     0.32000
H1518       H  0.05814670  0.39954607  0.36062989     0.34800
C1519       C  0.24264494  0.64967398  0.38966049     0.20400
C1520       C  0.26939869  0.67587414  0.39602105    -0.39500
C1521       C  0.27145546  0.70275786  0.38942734     0.19400
C1522       C  0.24880806  0.70386176  0.37711345     0.22000
C1523       C  0.22174856  0.67733528  0.37067022    -0.40000
C1524       C  0.21951349  0.65010626  0.37756445     0.20800
N1525       N  0.23463157  0.62164494  0.39598006    -0.33300
C1526       C  0.20599283  0.60370304  0.38816870    -0.10800
C1527       C  0.19570575  0.62052471  0.37634225    -0.29600
N1528       N  0.25553958  0.73261653  0.37521640    -0.46200
C1529       C  0.28228885  0.74936974  0.38689510    -0.05500
C1530       C  0.29286646  0.73151547  0.39570848    -0.22900
H1531       H  0.28680884  0.67537949  0.40644964     0.18900
H1532       H  0.20335447  0.67787425  0.36198788     0.17700
H1533       H  0.17348106  0.61244486  0.36898914     0.14000
H1534       H  0.31269368  0.73851838  0.40675254     0.13900
H1535       H  0.24746252  0.61530895  0.40596523     0.32000
H1536       H  0.24190585  0.74007941  0.36813169     0.34800
C1537       C  0.30435921  0.57102503  0.38569876     0.20400
C1538       C  0.33032298  0.59910016  0.39004686    -0.39500
C1539       C  0.35774718  0.60048832  0.38705879     0.19400
C1540       C  0.35946275  0.57582104  0.38017534     0.22000
C1541       C  0.33322575  0.54751465  0.37563436    -0.40000
C1542       C  0.30548001  0.54607836  0.37862774     0.20800
N1543       N  0.27589220  0.56366204  0.38978576    -0.33300
C1544       C  0.25822915  0.53378246  0.38527525    -0.10800
C1545       C  0.27582366  0.52188794  0.37799730    -0.29600
N1546       N  0.38841055  0.58277900  0.38061012    -0.46200
C1547       C  0.40496449  0.61196713  0.38805938    -0.05500
C1548       C  0.38650395  0.62365637  0.39204602    -0.22900
H1549       H  0.32920475  0.61823432  0.39635016     0.18900
H1550       H  0.33430123  0.52784794  0.37104920     0.17700
H1551       H  0.26825993  0.49849134  0.37467029     0.14000
H1552       H  0.39311602  0.64582559  0.39881676     0.13900
H1553       H  0.26895505  0.57780190  0.39648211     0.32000
H1554       H  0.39623425  0.56824400  0.37720272     0.34800
C1555       C  0.52835918  0.85114691  0.73286254     0.20400
C1556       C  0.53824283  0.84329682  0.75389011    -0.39500
C1557       C  0.53140605  0.85167370  0.77628951     0.19400
C1558       C  0.51622280  0.86699624  0.77759104     0.22000
C1559       C  0.50610512  0.87456404  0.75661494    -0.40000
C1560       C  0.51258385  0.86586124  0.73428185     0.20800
N1561       N  0.53208874  0.84591971  0.70938842    -0.33300
C1562       C  0.51822303  0.85706585  0.69587919    -0.10800
C1563       C  0.50571203  0.86955218  0.71075242    -0.29600
N1564       N  0.51208125  0.87199476  0.80097547    -0.46200
C1565       C  0.52431879  0.85939806  0.81471535    -0.05500
C1566       C  0.53669069  0.84657619  0.79998867    -0.22900
H1567       H  0.55014876  0.83135768  0.75289759     0.18900
H1568       H  0.49384980  0.88615046  0.75762012     0.17700
H1569       H  0.49370053  0.88038084  0.70505236     0.14000
H1570       H  0.54753106  0.83463572  0.80585236     0.13900
H1571       H  0.54324268  0.83536585  0.70295426     0.32000
H1572       H  0.50081870  0.88252184  0.80721607     0.34800
C1573       C  0.61532335  0.98307816  0.60317246     0.20400
C1574       C  0.62241650  0.00804712  0.58847269    -0.39500
C1575       C  0.63772505  0.03617187  0.60013817     0.19400
C1576       C  0.64582643  0.03931766  0.62456976     0.22000
C1577       C  0.63837506  0.01428702  0.63936292    -0.40000
C1578       C  0.62270671  0.98608718  0.62775975     0.20800
N1579       N  0.59690809  0.95394383  0.59731966    -0.33300
C1580       C  0.59208039  0.93821798  0.61830322    -0.10800
C1581       C  0.60784248  0.95750985  0.63769015    -0.29600
N1582       N  0.65674315  0.06781809  0.63205956    -0.46200
C1583       C  0.65494070  0.08273363  0.61245950    -0.05500
C1584       C  0.64328838  0.06376825  0.59220109    -0.22900
H1585       H  0.61470011  0.00554933  0.56975347     0.18900
H1586       H  0.64263133  0.01644749  0.65885789     0.17700
H1587       H  0.60594318  0.95173344  0.65689821     0.14000
H1588       H  0.63709274  0.06879005  0.57474256     0.13900
H1589       H  0.58560089  0.94554881  0.58073982     0.32000
H1590       H  0.66210452  0.07584393  0.64999209     0.34800
C1591       C  0.55846052  0.81321663  0.51398629     0.20400
C1592       C  0.55894412  0.81109336  0.48836151    -0.39500
C1593       C  0.56015687  0.78648190  0.47915765     0.19400
C1594       C  0.56019311  0.76521040  0.49434795     0.22000
C1595       C  0.56047298  0.76776269  0.51993501    -0.40000
C1596       C  0.55990482  0.79268371  0.52912134     0.20800
N1597       N  0.55299428  0.83181045  0.52714556    -0.33300
C1598       C  0.55148675  0.82335729  0.55083513    -0.10800
C1599       C  0.55604846  0.79928301  0.55276971    -0.29600
N1600       N  0.55562200  0.74117334  0.48136457    -0.46200
C1601       C  0.55299744  0.74728175  0.45771688    -0.05500
C1602       C  0.55627932  0.77558007  0.45557983    -0.22900
H1603       H  0.55656538  0.82634818  0.47646039     0.18900
H1604       H  0.55922938  0.75053925  0.53184418     0.17700
H1605       H  0.55353412  0.78627241  0.56900908     0.14000
H1606       H  0.55238525  0.78507799  0.43940785     0.13900
H1607       H  0.54857871  0.84788428  0.52032657     0.32000
H1608       H  0.55197143  0.72085585  0.48836240     0.34800
C1609       C  0.47994617  0.90790900  0.51942775     0.20400
C1610       C  0.48042664  0.90800146  0.49372524    -0.39500
C1611       C  0.45653286  0.90833639  0.48214483     0.19400
C1612       C  0.43351047  0.90790496  0.49524501     0.22000
C1613       C  0.43317865  0.90807929  0.52094774    -0.40000
C1614       C  0.45740105  0.90839742  0.53252393     0.20800
N1615       N  0.49698203  0.90236204  0.53438229    -0.33300
C1616       C  0.48542679  0.89948910  0.55715377    -0.10800
C1617       C  0.46093034  0.90347888  0.55676109    -0.29600
N1618       N  0.41065484  0.90228675  0.48030704    -0.46200
C1619       C  0.41914587  0.89934706  0.45751656    -0.05500
C1620       C  0.44781765  0.90335015  0.45791137    -0.22900
H1621       H  0.49699043  0.90573493  0.48350265     0.18900
H1622       H  0.41429685  0.90587613  0.53118159     0.17700
H1623       H  0.44524183  0.89899180  0.57153141     0.14000
H1624       H  0.45883594  0.89885837  0.44313503     0.13900
H1625       H  0.51330818  0.89748857  0.52908100     0.32000
H1626       H  0.38929605  0.89746659  0.48563837     0.34800
C1627       C  0.16089001  0.68343907  0.73301002     0.20400
C1628       C  0.16870812  0.70163987  0.75398467    -0.39500
C1629       C  0.16123073  0.68637380  0.77646895     0.19400
C1630       C  0.14673606  0.65532990  0.77788580     0.22000
C1631       C  0.13922962  0.63716264  0.75694491    -0.40000
C1632       C  0.14702147  0.65244937  0.73449479     0.20800
N1633       N  0.16531534  0.69242487  0.70951715    -0.33300
C1634       C  0.15447409  0.66700529  0.69597050    -0.10800
C1635       C  0.14299818  0.64162507  0.71090027    -0.29600
N1636       N  0.14194278  0.64624985  0.80131956    -0.46200
C1637       C  0.15378430  0.67166741  0.81498162    -0.05500
C1638       C  0.16609922  0.69720066  0.80014677    -0.22900
H1639       H  0.17985304  0.72589489  0.75287622     0.18900
H1640       H  0.12819411  0.61291311  0.75805794     0.17700
H1641       H  0.13267179  0.61837533  0.70522167     0.14000
H1642       H  0.17715873  0.72047329  0.80591260     0.13900
H1643       H  0.17518816  0.71447672  0.70308188     0.32000
H1644       H  0.13175714  0.62413109  0.80766174     0.34800
C1645       C  0.97681579  0.62799410  0.62592049     0.20400
C1646       C  0.00261898  0.64172001  0.64078384    -0.39500
C1647       C  0.03005846  0.65076257  0.62894499     0.19400
C1648       C  0.03174916  0.64674945  0.60407371     0.22000
C1649       C  0.00593709  0.63271678  0.58926952    -0.40000
C1650       C  0.97848711  0.62341527  0.60115563     0.20800
N1651       N  0.94795467  0.61322615  0.63348359    -0.33300
C1652       C  0.93112255  0.59860337  0.61358171    -0.10800
C1653       C  0.94942858  0.60463982  0.59306091    -0.29600
N1654       N  0.05976854  0.65400604  0.59774956    -0.46200
C1655       C  0.07597038  0.66231422  0.61873902    -0.05500
C1656       C  0.05822699  0.66059169  0.63858322    -0.22900
H1657       H  0.00119288  0.64341317  0.66042261     0.18900
H1658       H  0.00693673  0.62759370  0.57021388     0.17700
H1659       H  0.94266997  0.59373383  0.57537368     0.14000
H1660       H  0.06447973  0.66377691  0.65771499     0.13900
H1661       H  0.94046602  0.61019622  0.65159502     0.32000
H1662       H  0.06682476  0.65109837  0.58060268     0.34800
C1663       C  0.10431790  0.55925791  0.53069118     0.20400
C1664       C  0.10266261  0.53376781  0.52029747    -0.39500
C1665       C  0.10379195  0.53330939  0.49467769     0.19400
C1666       C  0.10600480  0.55636509  0.48040237     0.22000
C1667       C  0.10795114  0.58199635  0.49080471    -0.40000
C1668       C  0.10718943  0.58261522  0.51643316     0.20800
N1669       N  0.10910185  0.56730329  0.55437784    -0.33300
C1670       C  0.11567174  0.59610681  0.55515279    -0.10800
C1671       C  0.11448917  0.60636677  0.53190017    -0.29600
N1672       N  0.11169500  0.55305699  0.45699255    -0.46200
C1673       C  0.11378942  0.52818119  0.45642833    -0.05500
C1674       C  0.10877000  0.51512899  0.47953253    -0.22900
H1675       H  0.10301462  0.51673942  0.53140661     0.18900
H1676       H  0.11227044  0.60115091  0.47982031     0.17700
H1677       H  0.12169516  0.62922503  0.52669044     0.14000
H1678       H  0.11208866  0.49707092  0.48503903     0.13900
H1679       H  0.11147023  0.55535087  0.56865335     0.32000
H1680       H  0.11754747  0.56875454  0.44293881     0.34800
C1681       C  0.22136156  0.77665409  0.53052871     0.20400
C1682       C  0.24729790  0.80330917  0.52290857    -0.39500
C1683       C  0.25233650  0.80671430  0.49758901     0.19400
C1684       C  0.23254775  0.78553218  0.48100693     0.22000
C1685       C  0.20682724  0.75863985  0.48863004    -0.40000
C1686       C  0.20222961  0.75486365  0.51401441     0.20800
N1687       N  0.21442915  0.76620546  0.55354812    -0.33300
C1688       C  0.19148956  0.73723929  0.55173023    -0.10800
C1689       C  0.18301976  0.72942184  0.52735862    -0.29600
N1690       N  0.24412196  0.79228910  0.45829150    -0.46200
C1691       C  0.27181940  0.81735783  0.46050754    -0.05500
C1692       C  0.27769087  0.82713261  0.48472504    -0.22900
H1693       H  0.26354625  0.81917294  0.53585178     0.18900
H1694       H  0.19270476  0.74098695  0.47582341     0.17700
H1695       H  0.16709540  0.70729429  0.52022850     0.14000
H1696       H  0.29863876  0.84514645  0.49219231     0.13900
H1697       H  0.22680895  0.77692964  0.56927007     0.32000
H1698       H  0.23509579  0.77895358  0.44266776     0.34800
C1699       C  0.30745499  0.74377175  0.63122313     0.20400
C1700       C  0.33314564  0.74192485  0.62796478    -0.39500
C1701       C  0.36065993  0.76918439  0.62914830     0.19400
C1702       C  0.36265495  0.79637351  0.63356642     0.22000
C1703       C  0.33679147  0.79820394  0.63705443    -0.40000
C1704       C  0.30902800  0.77077937  0.63568324     0.20800
N1705       N  0.27895932  0.72165303  0.62748185    -0.33300
C1706       C  0.26197233  0.73429766  0.62948975    -0.10800
C1707       C  0.27979439  0.76493756  0.63495887    -0.29600
N1708       N  0.39143440  0.81929713  0.63150727    -0.46200
C1709       C  0.40755825  0.80643249  0.62537845    -0.05500
C1710       C  0.38912935  0.77525409  0.62392987    -0.22900
H1711       H  0.33171216  0.72095422  0.62339451     0.18900
H1712       H  0.33813145  0.81953575  0.63935433     0.17700
H1713       H  0.27273981  0.78116688  0.63582442     0.14000
H1714       H  0.39549623  0.75927718  0.61855841     0.13900
H1715       H  0.27162550  0.69955138  0.62212822     0.32000
H1716       H  0.39932609  0.84221940  0.63278354     0.34800
C1717       C  0.35192286  0.49181788  0.77727446     0.20400
C1718       C  0.37016879  0.50133347  0.75623537    -0.39500
C1719       C  0.35488707  0.49449924  0.73376802     0.19400
C1720       C  0.32379500  0.47887102  0.73238302     0.22000
C1721       C  0.30557303  0.46952155  0.75340642    -0.40000
C1722       C  0.32085769  0.47680116  0.77585772     0.20800
N1723       N  0.36095705  0.49671419  0.80076704    -0.33300
C1724       C  0.33548366  0.48512082  0.81440143    -0.10800
C1725       C  0.31002395  0.47243766  0.79949621    -0.29600
N1726       N  0.31474451  0.47565233  0.70895887    -0.46200
C1727       C  0.34021894  0.48979817  0.69529774    -0.05500
C1728       C  0.36574153  0.50177436  0.71012078    -0.22900
H1729       H  0.39448290  0.51373511  0.75729613     0.18900
H1730       H  0.28128866  0.45799207  0.75236575     0.17700
H1731       H  0.28676684  0.46196797  0.80519418     0.14000
H1732       H  0.38904928  0.51428653  0.70436960     0.13900
H1733       H  0.38311310  0.50804336  0.80711896     0.32000
H1734       H  0.29259219  0.46514266  0.70266711     0.34800
C1735       C  0.35554780  0.38884065  0.62386599     0.20400
C1736       C  0.36370528  0.37111866  0.63732456    -0.39500
C1737       C  0.38159435  0.36228573  0.62492894     0.19400
C1738       C  0.39094440  0.37087026  0.60101919     0.22000
C1739       C  0.38270441  0.38844001  0.58755756    -0.40000
C1740       C  0.36460305  0.39698520  0.59984875     0.20800
N1741       N  0.34246023  0.40356819  0.63250657    -0.33300
C1742       C  0.34310458  0.42110659  0.61388570    -0.10800
C1743       C  0.35670071  0.41754547  0.59322550    -0.29600
N1744       N  0.41160688  0.36396892  0.59467949    -0.46200
C1745       C  0.41545254  0.35077030  0.61454160    -0.05500
C1746       C  0.39686030  0.34898248  0.63373108    -0.22900
H1747       H  0.35812165  0.36616920  0.65650623     0.18900
H1748       H  0.39140103  0.39652738  0.56936542     0.17700
H1749       H  0.36295232  0.43071814  0.57657808     0.14000
H1750       H  0.39721804  0.34229473  0.65241282     0.13900
H1751       H  0.33606707  0.40384984  0.65059067     0.32000
H1752       H  0.42430278  0.37024378  0.57857569     0.34800
C1753       C  0.24513966  0.45139315  0.51675366     0.20400
C1754       C  0.24194322  0.44968032  0.49115381    -0.39500
C1755       C  0.21655830  0.44934938  0.48192198     0.19400
C1756       C  0.19632081  0.45139822  0.49705167     0.22000
C1757       C  0.19916074  0.45243556  0.52266734    -0.40000
C1758       C  0.22411584  0.45198808  0.53192396     0.20800
N1759       N  0.26931413  0.45634818  0.52970159    -0.33300
C1760       C  0.26344650  0.45956622  0.55333767    -0.10800
C1761       C  0.23528321  0.45660188  0.55546403    -0.29600
N1762       N  0.17741549  0.45622105  0.48380826    -0.46200
C1763       C  0.18536647  0.45689833  0.46005551    -0.05500
C1764       C  0.20935005  0.45212636  0.45815182    -0.22900
H1765       H  0.25895116  0.45042884  0.47921957     0.18900
H1766       H  0.18406937  0.45525737  0.53447317     0.17700
H1767       H  0.22586634  0.46076517  0.57159507     0.14000
H1768       H  0.22221235  0.45431896  0.44186035     0.13900
H1769       H  0.28944109  0.45946751  0.52269078     0.32000
H1770       H  0.16175049  0.46126117  0.49061131     0.34800
C1771       C  0.42504487  0.53814650  0.51533023     0.20400
C1772       C  0.42519664  0.53834998  0.48965861    -0.39500
C1773       C  0.45096515  0.56208656  0.47857785     0.19400
C1774       C  0.47460596  0.58432460  0.49208470     0.22000
C1775       C  0.47467205  0.58382553  0.51777025    -0.40000
C1776       C  0.44912060  0.55977731  0.52885725     0.20800
N1777       N  0.40131624  0.52117609  0.52993586    -0.33300
C1778       C  0.41039893  0.53178069  0.55291833    -0.10800
C1779       C  0.44017916  0.55563350  0.55303329    -0.29600
N1780       N  0.49329219  0.60752606  0.47760950    -0.46200
C1781       C  0.48163006  0.59993073  0.45476545    -0.05500
C1782       C  0.45550252  0.57158066  0.45460087    -0.22900
H1783       H  0.40569774  0.52252952  0.47910956     0.18900
H1784       H  0.49226428  0.60207849  0.52836427     0.17700
H1785       H  0.45226242  0.57035197  0.56823755     0.14000
H1786       H  0.43963125  0.56141103  0.43969842     0.13900
H1787       H  0.37949206  0.50518689  0.52439451     0.32000
H1788       H  0.51089421  0.62855708  0.48332054     0.34800
C1789       C  0.41007189  0.65116095  0.62327778     0.20400
C1790       C  0.40988795  0.67718230  0.61751673    -0.39500
C1791       C  0.43629214  0.70426394  0.62277552     0.19400
C1792       C  0.46120671  0.70573862  0.63331624     0.22000
C1793       C  0.46143350  0.67939392  0.63903272    -0.40000
C1794       C  0.43481649  0.65194596  0.63348207     0.20800
N1795       N  0.38843780  0.62297322  0.61797493    -0.33300
C1796       C  0.39920212  0.60524506  0.62447389    -0.10800
C1797       C  0.42807405  0.62239797  0.63449061    -0.29600
N1798       N  0.48422388  0.73464315  0.63467244    -0.46200
C1799       C  0.47362166  0.75113033  0.62444593    -0.05500
C1800       C  0.44391484  0.73292521  0.61699235    -0.22900
H1801       H  0.39092925  0.67638628  0.60857704     0.18900
H1802       H  0.48116846  0.68020453  0.64632457     0.17700
H1803       H  0.44270473  0.61456364  0.64034164     0.14000
H1804       H  0.43022671  0.73970697  0.60734907     0.13900
H1805       H  0.36801726  0.61634825  0.60931635     0.32000
H1806       H  0.50613173  0.74241097  0.64063381     0.34800
C1807       C  0.26418175  0.56991377  0.63262037     0.20400
C1808       C  0.26666603  0.59788157  0.62999000    -0.39500
C1809       C  0.23965953  0.59761796  0.63082027     0.19400
C1810       C  0.21200342  0.57150036  0.63403507     0.22000
C1811       C  0.20950056  0.54329116  0.63675064    -0.40000
C1812       C  0.23675581  0.54353095  0.63599814     0.20800
N1813       N  0.28625323  0.56413981  0.62946251    -0.33300
C1814       C  0.27318128  0.53390094  0.63081118    -0.10800
C1815       C  0.24227174  0.52011824  0.63518210    -0.29600
N1816       N  0.18958878  0.57727000  0.63189647    -0.46200
C1817       C  0.20330477  0.60718657  0.62699806    -0.05500
C1818       C  0.23446834  0.62051057  0.62642765    -0.22900
H1819       H  0.28801975  0.61824180  0.62635007     0.18900
H1820       H  0.18789937  0.52258815  0.63823391     0.17700
H1821       H  0.22575983  0.49624638  0.63525151     0.14000
H1822       H  0.25108263  0.64362124  0.62198926     0.13900
H1823       H  0.30862308  0.57969944  0.62488818     0.32000
H1824       H  0.16648420  0.56163076  0.63231944     0.34800
loop_ 
_geom_bond_atom_site_label_1 
_geom_bond_atom_site_label_2 
_geom_bond_distance 
_geom_bond_site_symmetry_2 
_ccdc_geom_bond_type 
O1           C16   1.266       .  A
O1           Al9   1.917       .  S
C2           O12   1.256       .  A
C2            O3   1.253       .  A
C2         C1778   1.465       .  S
O3           Al5   1.886       .  S
O4            C6   1.253       .  A
O4           Al5   1.897       .  S
Al5          O13   1.871       .  S
Al5          O15   1.912       .  S
Al5          O14   1.785       .  S
C6           O19   1.260       .  A
C6         C1760   1.475       .  S
O7           C17   1.269       .  A
O7           Al9   1.916       .  S
O8           C21   1.255       .  A
O8          Al18   1.898       .  S
Al9          O22   1.910       .  S
Al9          O19   1.934       .  S
Al9          O14   1.804       .  S
O10          C17   1.267       .  A
O10         Al18   1.914       .  S
O11          C20   1.262       .  A
O11         Al18   1.925       .  S
O12         Al18   1.903       .  S
O13          C20   1.256       .  A
O14         Al18   1.804       .  S
O15          C16   1.264       .  A
C16        C1814   1.471       .  S
C17        C1742   1.468       .  S
C20        C1796   1.471       .  S
C21          O22   1.256       .  A
C21        C1727   1.476       .  S
O23          C38   1.264       .  A
O23         Al31   1.913       .  S
C24          O34   1.257       .  A
C24          O25   1.258       .  A
C24        C1670   1.459       .  S
O25         Al27   1.895       .  S
O26          C28   1.256       .  A
O26         Al27   1.897       .  S
Al27         O35   1.881       .  S
Al27         O37   1.906       .  S
Al27         O36   1.777       .  S
C28          O41   1.261       .  A
C28        C1688   1.470       .  S
O29          C39   1.264       .  A
O29         Al31   1.913       .  S
O30          C43   1.258       .  A
O30         Al40   1.889       .  S
Al31         O44   1.924       .  S
Al31         O41   1.929       .  S
Al31         O36   1.793       .  S
O32          C39   1.266       .  A
O32         Al40   1.929       .  S
O33          C42   1.265       .  A
O33         Al40   1.945       .  S
O34         Al40   1.897       .  S
O35          C42   1.257       .  A
O36         Al40   1.794       .  S
O37          C38   1.262       .  A
C38        C1706   1.468       .  S
C39        C1655   1.472       .  S
C42        C1817   1.479       .  S
C43          O44   1.263       .  A
C43        C1634   1.472       .  S
O45          C60   1.267       .  A
O45         Al53   1.922       .  S
C46          O56   1.258       .  A
C46          O47   1.255       .  A
C46        C1616   1.463       .  S
O47         Al49   1.886       .  S
O48          C50   1.256       .  A
O48         Al49   1.905       .  S
Al49         O57   1.884       .  S
Al49         O59   1.903       .  S
Al49         O58   1.775       .  S
C50          O63   1.262       .  A
C50        C1598   1.473       .  S
O51          C61   1.268       .  A
O51         Al53   1.915       .  S
O52          C65   1.256       .  A
O52         Al62   1.888       .  S
Al53         O66   1.919       .  S
Al53         O63   1.931       .  S
Al53         O58   1.795       .  S
O54          C61   1.267       .  A
O54         Al62   1.918       .  S
O55          C64   1.264       .  A
O55         Al62   1.930       .  S
O56         Al62   1.906       .  S
O57          C64   1.258       .  A
O58         Al62   1.792       .  S
O59          C60   1.264       .  A
C60        C1799   1.469       .  S
C61        C1580   1.467       .  S
C64        C1709   1.474       .  S
C65          O66   1.259       .  A
C65        C1562   1.470       .  S
O67          C82   1.270       .  A
O67         Al75   1.935       .  S
C68          O78   1.255       .  A
C68          O69   1.255       .  A
C68        C1673   1.462       .  S
O69         Al71   1.890       .  S
O70          C72   1.255       .  A
O70         Al71   1.901       .  S
Al71         O79   1.875       .  S
Al71         O81   1.912       .  S
Al71         O80   1.780       .  S
C72          O85   1.262       .  A
C72        C1763   1.476       .  S
O73          C83   1.270       .  A
O73         Al75   1.925       .  S
O74          C87   1.256       .  A
O74         Al84   1.895       .  S
Al75         O88   1.916       .  S
Al75         O85   1.936       .  S
Al75         O80   1.797       .  S
O76          C83   1.266       .  A
O76         Al84   1.915       .  S
O77          C86   1.263       .  A
O77         Al84   1.926       .  S
O78         Al84   1.900       .  S
O79          C86   1.257       .  A
O80         Al84   1.799       .  S
O81          C82   1.264       .  A
C82        C1544   1.480       .  S
C83        C1511   1.473       .  S
C86        C1526   1.471       .  S
C87          O88   1.259       .  A
C87        C1493   1.474       .  S
O89         C104   1.266       .  A
O89         Al97   1.918       .  S
C90         O100   1.257       .  A
C90          O91   1.253       .  A
C90        C1619   1.467       .  S
O91         Al93   1.884       .  S
O92          C94   1.257       .  A
O92         Al93   1.901       .  S
Al93        O101   1.872       .  S
Al93        O103   1.903       .  S
Al93        O102   1.778       .  S
C94         O107   1.259       .  A
C94        C1691   1.469       .  S
O95         C105   1.269       .  A
O95         Al97   1.910       .  S
O96         C109   1.254       .  A
O96        Al106   1.894       .  S
Al97        O110   1.904       .  S
Al97        O107   1.925       .  S
Al97        O102   1.802       .  S
O98         C105   1.270       .  A
O98        Al106   1.927       .  S
O99         C108   1.265       .  A
O99        Al106   1.940       .  S
O100       Al106   1.911       .  S
O101        C108   1.258       .  A
O102       Al106   1.795       .  S
O103        C104   1.264       .  A
C104       C1529   1.468       .  S
C105       C1454   1.470       .  S
C108       C1472   1.476       .  S
C109        O110   1.255       .  A
C109       C1436   1.470       .  S
O111        C126   1.264       .  A
O111       Al119   1.910       .  S
C112        O122   1.257       .  A
C112        O113   1.256       .  A
C112       C1781   1.462       .  S
O113       Al115   1.892       .  S
O114        C116   1.256       .  A
O114       Al115   1.904       .  S
Al115       O123   1.887       .  S
Al115       O125   1.908       .  S
Al115       O124   1.779       .  S
C116        O129   1.259       .  A
C116       C1601   1.472       .  S
O117        C127   1.266       .  A
O117       Al119   1.908       .  S
O118        C131   1.257       .  A
O118       Al128   1.897       .  S
Al119       O132   1.907       .  S
Al119       O129   1.925       .  S
Al119       O124   1.799       .  S
O120        C127   1.269       .  A
O120       Al128   1.932       .  S
O121        C130   1.266       .  A
O121       Al128   1.945       .  S
O122       Al128   1.901       .  S
O123        C130   1.258       .  A
O124       Al128   1.795       .  S
O125        C126   1.265       .  A
C126       C1475   1.466       .  S
C127       C1418   1.470       .  S
C130       C1547   1.485       .  S
C131        O132   1.258       .  A
C131       C1403   1.470       .  S
O133        C148   1.258       .  A
O133       Al141   1.899       .  S
C134        O144   1.261       .  A
C134        O135   1.264       .  A
C134       C1346   1.458       .  S
O135       Al137   1.916       .  S
O136        C138   1.258       .  A
O136       Al137   1.882       .  S
Al137       O145   1.908       .  S
Al137       O147   1.910       .  S
Al137       O146   1.784       .  S
C138        O151   1.268       .  A
C138       C1421   1.473       .  S
O139        C149   1.258       .  A
O139       Al141   1.913       .  S
O140        C153   1.260       .  A
O140       Al150   1.866       .  S
Al141       O154   1.960       .  S
Al141       O151   1.946       .  S
Al141       O146   1.792       .  S
O142        C149   1.256       .  A
O142       Al150   1.907       .  S
O143        C152   1.261       .  A
O143       Al150   1.923       .  S
O144       Al150   1.894       .  S
O145        C152   1.260       .  A
O146       Al150   1.778       .  S
O147        C148   1.261       .  A
C148       C1310   1.475       .  S
C149       C1328   1.469       .  S
C152       C1364   1.469       .  S
C153        O154   1.272       .  A
C153       C1382   1.471       .  S
O155        C170   1.257       .  A
O155       Al163   1.902       .  S
C156        O166   1.259       .  A
C156        O157   1.258       .  A
C156       C1349   1.458       .  S
O157       Al159   1.907       .  S
O158        C160   1.260       .  A
O158       Al159   1.880       .  S
Al159       O167   1.900       .  S
Al159       O169   1.897       .  S
Al159       O168   1.796       .  S
C160        O173   1.270       .  A
C160       C1745   1.468       .  S
O161        C171   1.260       .  A
O161       Al163   1.924       .  S
O162        C175   1.259       .  A
O162       Al172   1.875       .  S
Al163       O176   1.941       .  S
Al163       O173   1.944       .  S
Al163       O168   1.797       .  S
O164        C171   1.252       .  A
O164       Al172   1.881       .  S
O165        C174   1.259       .  A
O165       Al172   1.898       .  S
O166       Al172   1.902       .  S
O167        C174   1.260       .  A
O168       Al172   1.779       .  S
O169        C170   1.255       .  A
C170       C1238   1.472       .  S
C171       C1259   1.473       .  S
C174       C1274   1.455       .  S
C175        O176   1.268       .  A
C175       C1292   1.472       .  S
O177        C192   1.260       .  A
O177       Al185   1.908       .  S
C178        O188   1.261       .  A
C178        O179   1.262       .  A
C178       C1202   1.458       .  S
O179       Al181   1.919       .  S
O180        C182   1.258       .  A
O180       Al181   1.876       .  S
Al181       O189   1.903       .  S
Al181       O191   1.905       .  S
Al181       O190   1.787       .  S
C182        O195   1.270       .  A
C182       C1457   1.472       .  S
O183        C193   1.259       .  A
O183       Al185   1.924       .  S
O184        C197   1.259       .  A
O184       Al194   1.864       .  S
Al185       O198   1.971       .  S
Al185       O195   1.954       .  S
Al185       O190   1.792       .  S
O186        C193   1.256       .  A
O186       Al194   1.901       .  S
O187        C196   1.261       .  A
O187       Al194   1.916       .  S
O188       Al194   1.895       .  S
O189        C196   1.259       .  A
O190       Al194   1.774       .  S
O191        C192   1.259       .  A
C192       C1184   1.477       .  S
C193       C1256   1.471       .  S
C196       C1223   1.466       .  S
C197        O198   1.274       .  A
C197       C1367   1.476       .  S
O199        C214   1.256       .  A
O199       Al207   1.896       .  S
C200        O210   1.258       .  A
C200        O201   1.261       .  A
C200       C1151   1.456       .  S
O201       Al203   1.919       .  S
O202        C204   1.259       .  A
O202       Al203   1.875       .  S
Al203       O211   1.898       .  S
Al203       O213   1.912       .  S
Al203       O212   1.792       .  S
C204        O217   1.271       .  A
C204       C1652   1.469       .  S
O205        C215   1.257       .  A
O205       Al207   1.912       .  S
O206        C219   1.257       .  A
O206       Al216   1.854       .  S
Al207       O220   1.951       .  S
Al207       O217   1.949       .  S
Al207       O212   1.794       .  S
O208        C215   1.253       .  A
O208       Al216   1.891       .  S
O209        C218   1.261       .  A
O209       Al216   1.911       .  S
O210       Al216   1.888       .  S
O211        C218   1.259       .  A
O212       Al216   1.779       .  S
O213        C214   1.258       .  A
C214       C1130   1.476       .  S
C215       C1331   1.469       .  S
C218       C1166   1.460       .  S
C219        O220   1.271       .  A
C219       C1277   1.467       .  S
O221        C236   1.258       .  A
O221       Al229   1.901       .  S
C222        O232   1.259       .  A
C222        O223   1.262       .  A
C222       C1148   1.455       .  S
O223       Al225   1.916       .  S
O224        C226   1.259       .  A
O224       Al225   1.883       .  S
Al225       O233   1.902       .  S
Al225       O235   1.907       .  S
Al225       O234   1.790       .  S
C226        O239   1.270       .  A
C226       C1508   1.474       .  S
O227        C237   1.259       .  A
O227       Al229   1.916       .  S
O228        C241   1.259       .  A
O228       Al238   1.869       .  S
Al229       O242   1.956       .  S
Al229       O239   1.951       .  S
Al229       O234   1.791       .  S
O230        C237   1.254       .  A
O230       Al238   1.894       .  S
O231        C240   1.260       .  A
O231       Al238   1.911       .  S
O232       Al238   1.890       .  S
O233        C240   1.259       .  A
O234       Al238   1.778       .  S
O235        C236   1.258       .  A
C236       C1094   1.475       .  S
C237       C1115   1.469       .  S
C240       C1385   1.462       .  S
C241        O242   1.272       .  A
C241       C1220   1.473       .  S
O243        C258   1.261       .  A
O243       Al251   1.909       .  S
C244        O254   1.257       .  A
C244        O245   1.261       .  A
C244       C1205   1.455       .  S
O245       Al247   1.920       .  S
O246        C248   1.261       .  A
O246       Al247   1.887       .  S
Al247       O255   1.907       .  S
Al247       O257   1.912       .  S
Al247       O256   1.790       .  S
C248        O261   1.270       .  A
C248       C1583   1.469       .  S
O249        C259   1.262       .  A
O249       Al251   1.926       .  S
O250        C263   1.258       .  A
O250       Al260   1.860       .  S
Al251       O264   1.954       .  S
Al251       O261   1.944       .  S
Al251       O256   1.789       .  S
O252        C259   1.256       .  A
O252       Al260   1.903       .  S
O253        C262   1.263       .  A
O253       Al260   1.919       .  S
O254       Al260   1.887       .  S
O255        C262   1.261       .  A
O256       Al260   1.772       .  S
O257        C258   1.260       .  A
C258       C1076   1.478       .  S
C259       C1112   1.475       .  S
C262       C1295   1.466       .  S
C263        O264   1.270       .  A
C263       C1169   1.471       .  S
O265        C280   1.265       .  A
O265       Al273   1.924       .  S
C266        O276   1.258       .  A
C266        O267   1.257       .  A
C266       C1022   1.462       .  S
O267       Al269   1.900       .  S
O268        C270   1.259       .  A
O268       Al269   1.904       .  S
Al269       O277   1.885       .  S
Al269       O279   1.902       .  S
Al269       O278   1.778       .  S
C270        O283   1.265       .  A
C270       C1007   1.476       .  S
O271        C281   1.269       .  A
O271       Al273   1.931       .  S
O272        C285   1.259       .  A
O272       Al282   1.893       .  S
Al273       O286   1.926       .  S
Al273       O283   1.940       .  S
Al273       O278   1.794       .  S
O274        C281   1.265       .  A
O274       Al282   1.921       .  S
O275        C284   1.266       .  A
O275       Al282   1.944       .  S
O276       Al282   1.903       .  S
O277        C284   1.258       .  A
O278       Al282   1.789       .  S
O279        C280   1.261       .  A
C280       C1058   1.470       .  S
C281        C986   1.480       .  S
C284       C1040   1.477       .  S
C285        O286   1.263       .  A
C285       C1313   1.475       .  S
O287        C302   1.265       .  A
O287       Al295   1.922       .  S
C288        O298   1.257       .  A
C288        O289   1.253       .  A
C288       C1025   1.464       .  S
O289       Al291   1.882       .  S
O290        C292   1.255       .  A
O290       Al291   1.897       .  S
Al291       O299   1.878       .  S
Al291       O301   1.902       .  S
Al291       O300   1.781       .  S
C292        O305   1.263       .  A
C292        C932   1.477       .  S
O293        C303   1.269       .  A
O293       Al295   1.920       .  S
O294        C307   1.254       .  A
O294       Al304   1.889       .  S
Al295       O308   1.919       .  S
Al295       O305   1.943       .  S
Al295       O300   1.801       .  S
O296        C303   1.266       .  A
O296       Al304   1.918       .  S
O297        C306   1.263       .  A
O297       Al304   1.930       .  S
O298       Al304   1.908       .  S
O299        C306   1.257       .  A
O300       Al304   1.800       .  S
O301        C302   1.262       .  A
C302        C968   1.470       .  S
C303        C914   1.474       .  S
C306        C950   1.475       .  S
C307        O308   1.260       .  A
C307       C1241   1.474       .  S
O309        C324   1.263       .  A
O309       Al317   1.904       .  S
C310        O320   1.257       .  A
C310        O311   1.257       .  A
C310        C863   1.462       .  S
O311       Al313   1.895       .  S
O312        C314   1.257       .  A
O312       Al313   1.904       .  S
Al313       O321   1.879       .  S
Al313       O323   1.908       .  S
Al313       O322   1.782       .  S
C314        O327   1.262       .  A
C314        C878   1.474       .  S
O315        C325   1.267       .  A
O315       Al317   1.912       .  S
O316        C329   1.257       .  A
O316       Al326   1.901       .  S
Al317       O330   1.924       .  S
Al317       O327   1.935       .  S
Al317       O322   1.794       .  S
O318        C325   1.266       .  A
O318       Al326   1.917       .  S
O319        C328   1.262       .  A
O319       Al326   1.923       .  S
O320       Al326   1.902       .  S
O321        C328   1.257       .  A
O322       Al326   1.795       .  S
O323        C324   1.263       .  A
C324        C899   1.462       .  S
C325        C845   1.468       .  S
C328        C971   1.470       .  S
C329        O330   1.262       .  A
C329       C1079   1.480       .  S
O331        C346   1.266       .  A
O331       Al339   1.924       .  S
C332        O342   1.257       .  A
C332        O333   1.257       .  A
C332        C824   1.466       .  S
O333       Al335   1.899       .  S
O334        C336   1.257       .  A
O334       Al335   1.900       .  S
Al335       O343   1.877       .  S
Al335       O345   1.905       .  S
Al335       O344   1.776       .  S
C336        O349   1.264       .  A
C336       C1004   1.474       .  S
O337        C347   1.269       .  A
O337       Al339   1.921       .  S
O338        C351   1.257       .  A
O338       Al348   1.892       .  S
Al339       O352   1.925       .  S
Al339       O349   1.939       .  S
Al339       O344   1.795       .  S
O340        C347   1.265       .  A
O340       Al348   1.914       .  S
O341        C350   1.264       .  A
O341       Al348   1.931       .  S
O342       Al348   1.905       .  S
O343        C350   1.256       .  A
O344       Al348   1.791       .  S
O345        C346   1.264       .  A
C346        C953   1.472       .  S
C347        C806   1.470       .  S
C350        C896   1.469       .  S
C351        O352   1.262       .  A
C351       C1133   1.476       .  S
O353        C368   1.266       .  A
O353       Al361   1.919       .  S
C354        O364   1.257       .  A
C354        O355   1.256       .  A
C354        C860   1.464       .  S
O355       Al357   1.892       .  S
O356        C358   1.253       .  A
O356       Al357   1.895       .  S
Al357       O365   1.873       .  S
Al357       O367   1.912       .  S
Al357       O366   1.784       .  S
C358        O371   1.260       .  A
C358        C935   1.473       .  S
O359        C369   1.270       .  A
O359       Al361   1.925       .  S
O360        C373   1.259       .  A
O360       Al370   1.906       .  S
Al361       O374   1.914       .  S
Al361       O371   1.931       .  S
Al361       O366   1.799       .  S
O362        C369   1.266       .  A
O362       Al370   1.914       .  S
O363        C372   1.261       .  A
O363       Al370   1.924       .  S
O364       Al370   1.902       .  S
O365        C372   1.256       .  A
O366       Al370   1.800       .  S
O367        C368   1.265       .  A
C368       C1043   1.472       .  S
C369        C773   1.475       .  S
C372        C791   1.469       .  S
C373        O374   1.259       .  A
C373       C1187   1.477       .  S
O375        C390   1.262       .  A
O375       Al383   1.904       .  S
C376        O386   1.258       .  A
C376        O377   1.256       .  A
C376        C827   1.467       .  S
O377       Al379   1.894       .  S
O378        C380   1.256       .  A
O378       Al379   1.898       .  S
Al379       O387   1.876       .  S
Al379       O389   1.904       .  S
Al379       O388   1.777       .  S
C380        O393   1.262       .  A
C380        C881   1.472       .  S
O381        C391   1.264       .  A
O381       Al383   1.899       .  S
O382        C395   1.257       .  A
O382       Al392   1.898       .  S
Al383       O396   1.918       .  S
Al383       O393   1.933       .  S
Al383       O388   1.801       .  S
O384        C391   1.267       .  A
O384       Al392   1.921       .  S
O385        C394   1.264       .  A
O385       Al392   1.937       .  S
O386       Al392   1.908       .  S
O387        C394   1.257       .  A
O388       Al392   1.795       .  S
O389        C390   1.263       .  A
C390        C788   1.460       .  S
C391        C752   1.463       .  S
C394       C1061   1.475       .  S
C395        O396   1.260       .  A
C395       C1097   1.476       .  S
O397        C412   1.260       .  A
O397       Al405   1.898       .  S
C398        O408   1.261       .  A
C398        O399   1.263       .  A
C398        C701   1.454       .  S
O399       Al401   1.915       .  S
O400        C402   1.258       .  A
O400       Al401   1.884       .  S
Al401       O409   1.907       .  S
Al401       O411   1.918       .  S
Al401       O410   1.785       .  S
C402        O415   1.269       .  A
C402        C917   1.476       .  S
O403        C413   1.261       .  A
O403       Al405   1.929       .  S
O404        C417   1.261       .  A
O404       Al414   1.874       .  S
Al405       O418   1.965       .  S
Al405       O415   1.951       .  S
Al405       O410   1.788       .  S
O406        C413   1.257       .  A
O406       Al414   1.905       .  S
O407        C416   1.260       .  A
O407       Al414   1.917       .  S
O408       Al414   1.893       .  S
O409        C416   1.260       .  A
O410       Al414   1.775       .  S
O411        C412   1.262       .  A
C412       C1724   1.476       .  S
C413        C680   1.474       .  S
C416        C719   1.466       .  S
C417        O418   1.273       .  A
C417        C737   1.476       .  S
O419        C434   1.260       .  A
O419       Al427   1.905       .  S
C420        O430   1.257       .  A
C420        O421   1.261       .  A
C420        C626   1.457       .  S
O421       Al423   1.921       .  S
O422        C424   1.258       .  A
O422       Al423   1.878       .  S
Al423       O431   1.889       .  S
Al423       O433   1.909       .  S
Al423       O432   1.790       .  S
C424        O437   1.270       .  A
C424        C755   1.470       .  S
O425        C435   1.264       .  A
O425       Al427   1.926       .  S
O426        C439   1.257       .  A
O426       Al436   1.865       .  S
Al427       O440   1.949       .  S
Al427       O437   1.953       .  S
Al427       O432   1.795       .  S
O428        C435   1.259       .  A
O428       Al436   1.902       .  S
O429        C438   1.261       .  A
O429       Al436   1.913       .  S
O430       Al436   1.887       .  S
O431        C438   1.256       .  A
O432       Al436   1.776       .  S
O433        C434   1.260       .  A
C434       C1490   1.474       .  S
C435        C683   1.477       .  S
C438        C647   1.456       .  S
C439        O440   1.267       .  A
C439        C665   1.472       .  S
O441        C456   1.260       .  A
O441       Al449   1.898       .  S
C442        O452   1.258       .  A
C442        O443   1.264       .  A
C442        C629   1.457       .  S
O443       Al445   1.926       .  S
O444        C446   1.258       .  A
O444       Al445   1.880       .  S
Al445       O453   1.908       .  S
Al445       O455   1.910       .  S
Al445       O454   1.786       .  S
C446        O459   1.268       .  A
C446        C809   1.473       .  S
O447        C457   1.261       .  A
O447       Al449   1.925       .  S
O448        C461   1.259       .  A
O448       Al458   1.867       .  S
Al449       O462   1.948       .  S
Al449       O459   1.948       .  S
Al449       O454   1.794       .  S
O450        C457   1.256       .  A
O450       Al458   1.896       .  S
O451        C460   1.259       .  A
O451       Al458   1.914       .  S
O452       Al458   1.883       .  S
O453        C460   1.259       .  A
O454       Al458   1.774       .  S
O455        C456   1.261       .  A
C456       C1637   1.472       .  S
C457        C593   1.473       .  S
C460        C734   1.468       .  S
C461        O462   1.270       .  A
C461        C608   1.466       .  S
O463        C478   1.258       .  A
O463       Al471   1.889       .  S
C464        O474   1.259       .  A
C464        O465   1.264       .  A
C464        C572   1.461       .  S
O465       Al467   1.931       .  S
O466        C468   1.258       .  A
O466       Al467   1.877       .  S
Al467       O475   1.896       .  S
Al467       O477   1.919       .  S
Al467       O476   1.785       .  S
C468        O481   1.268       .  A
C468        C842   1.470       .  S
O469        C479   1.260       .  A
O469       Al471   1.914       .  S
O470        C483   1.256       .  A
O470       Al480   1.862       .  S
Al471       O484   1.957       .  S
Al471       O481   1.948       .  S
Al471       O476   1.793       .  S
O472        C479   1.258       .  A
O472       Al480   1.906       .  S
O473        C482   1.261       .  A
O473       Al480   1.914       .  S
O474       Al480   1.888       .  S
O475        C482   1.257       .  A
O476       Al480   1.774       .  S
O477        C478   1.263       .  A
C478       C1565   1.471       .  S
C479        C554   1.469       .  S
C482        C611   1.462       .  S
C483        O484   1.270       .  A
C483        C716   1.469       .  S
O485        C500   1.260       .  A
O485       Al493   1.892       .  S
C486        O496   1.262       .  A
C486        O487   1.266       .  A
C486        C575   1.456       .  S
O487       Al489   1.924       .  S
O488        C490   1.259       .  A
O488       Al489   1.892       .  S
Al489       O497   1.915       .  S
Al489       O499   1.911       .  S
Al489       O498   1.782       .  S
C490        O503   1.267       .  A
C490        C770   1.484       .  S
O491        C501   1.263       .  A
O491       Al493   1.932       .  S
O492        C505   1.260       .  A
O492       Al502   1.873       .  S
Al493       O506   1.957       .  S
Al493       O503   1.953       .  S
Al493       O498   1.792       .  S
O494        C501   1.258       .  A
O494       Al502   1.908       .  S
O495        C504   1.257       .  A
O495       Al502   1.912       .  S
O496       Al502   1.886       .  S
O497        C504   1.259       .  A
O498       Al502   1.775       .  S
O499        C500   1.263       .  A
C500       C1439   1.469       .  S
C501        C590   1.474       .  S
C504        C536   1.472       .  S
C505        O506   1.271       .  A
C505        C644   1.467       .  S
O507        C522   1.259       .  A
O507       Al515   1.900       .  S
C508        O518   1.261       .  A
C508        O509   1.263       .  A
C508        C698   1.451       .  S
O509       Al511   1.912       .  S
O510        C512   1.257       .  A
O510       Al511   1.880       .  S
Al511       O519   1.905       .  S
Al511       O521   1.907       .  S
Al511       O520   1.786       .  S
C512        O525   1.273       .  A
C512        C989   1.483       .  S
O513        C523   1.261       .  A
O513       Al515   1.922       .  S
O514        C527   1.260       .  A
O514       Al524   1.873       .  S
Al515       O528   1.967       .  S
Al515       O525   1.968       .  S
Al515       O520   1.787       .  S
O516        C523   1.256       .  A
O516       Al524   1.904       .  S
O517        C526   1.260       .  A
O517       Al524   1.913       .  S
O518       Al524   1.891       .  S
O519        C526   1.259       .  A
O520       Al524   1.775       .  S
O521        C522   1.260       .  A
C522       C1400   1.472       .  S
C523        C557   1.471       .  S
C526        C662   1.463       .  S
C527        O528   1.274       .  A
C527        C539   1.476       .  S
C529        C534   1.385       .  A
C529        C530   1.401       .  A
C529        N535   1.342       .  A
C530        C531   1.400       .  A
C530        H541   1.083       .  S
C531        C540   1.373       .  A
C531        C532   1.384       .  A
C532        C533   1.411       .  A
C532        N538   1.351       .  A
C533        C534   1.411       .  A
C533        H542   1.082       .  S
C534        C537   1.387       .  A
N535        C536   1.353       .  A
N535        H545   1.045       .  S
C536        C537   1.399       .  A
C537        H543   1.082       .  S
N538        C539   1.358       .  A
N538        H546   1.045       .  S
C539        C540   1.394       .  A
C540        H544   1.083       .  S
C547        C552   1.384       .  A
C547        C548   1.406   1_556  A
C547        N553   1.346       .  A
C548        C549   1.405       .  A
C548        H559   1.082       .  S
C549        C558   1.380       .  A
C549        C550   1.384       .  A
C550        C551   1.406   1_554  A
C550        N556   1.348       .  A
C551        C552   1.406       .  A
C551        H560   1.082       .  S
C552        C555   1.381       .  A
N553        C554   1.356       .  A
N553        H563   1.045       .  S
C554        C555   1.395       .  A
C555        H561   1.083       .  S
N556        C557   1.356       .  A
N556        H564   1.045       .  S
C557        C558   1.395       .  A
C558        H562   1.083       .  S
C565        C570   1.386       .  A
C565        C566   1.401       .  A
C565        N571   1.342       .  A
C566        C567   1.399   1_556  A
C566        H577   1.082       .  S
C567        C576   1.374       .  A
C567        C568   1.386       .  A
C568        C569   1.402       .  A
C568        N574   1.342       .  A
C569        C570   1.401   1_554  A
C569        H578   1.083       .  S
C570        C573   1.377       .  A
N571        C572   1.353       .  A
N571        H581   1.045       .  S
C572        C573   1.393       .  A
C573        H579   1.083       .  S
N574        C575   1.353       .  A
N574        H582   1.045       .  S
C575        C576   1.390       .  A
C576        H580   1.083       .  S
C583        C588   1.384       .  A
C583        C584   1.400       .  A
C583        N589   1.341       .  A
C584        C585   1.399   1_554  A
C584        H595   1.083       .  S
C585        C594   1.373       .  A
C585        C586   1.384       .  A
C586        C587   1.413       .  A
C586        N592   1.352       .  A
C587        C588   1.412   1_556  A
C587        H596   1.082       .  S
C588        C591   1.391       .  A
N589        C590   1.354       .  A
N589        H599   1.045       .  S
C590        C591   1.399       .  A
C591        H597   1.082       .  S
N592        C593   1.359       .  A
N592        H600   1.044       .  S
C593        C594   1.392       .  A
C594        H598   1.083       .  S
C601        C606   1.385       .  A
C601        C602   1.399       .  A
C601        N607   1.337       .  A
C602        C603   1.397       .  A
C602        H613   1.083       .  S
C603        C612   1.373       .  A
C603        C604   1.386       .  A
C604        C605   1.407       .  A
C604        N610   1.346       .  A
C605        C606   1.405       .  A
C605        H614   1.082       .  S
C606        C609   1.384       .  A
N607        C608   1.353       .  A
N607        H617   1.045       .  S
C608        C609   1.395       .  A
C609        H615   1.082       .  S
N610        C611   1.355       .  A
N610        H618   1.045       .  S
C611        C612   1.390       .  A
C612        H616   1.082       .  S
C619        C624   1.386       .  A
C619        C620   1.401   1_554  A
C619        N625   1.342       .  A
C620        C621   1.400       .  A
C620        H631   1.083       .  S
C621        C630   1.376       .  A
C621        C622   1.386       .  A
C622        C623   1.401   1_556  A
C622        N628   1.340       .  A
C623        C624   1.399       .  A
C623        H632   1.083       .  S
C624        C627   1.375       .  A
N625        C626   1.353       .  A
N625        H635   1.045       .  S
C626        C627   1.391       .  A
C627        H633   1.083       .  S
N628        C629   1.353       .  A
N628        H636   1.045       .  S
C629        C630   1.391       .  A
C630        H634   1.083       .  S
C637        C642   1.385       .  A
C637        C638   1.406       .  A
C637        N643   1.347       .  A
C638        C639   1.405       .  A
C638        H649   1.082       .  S
C639        C648   1.380       .  A
C639        C640   1.386       .  A
C640        C641   1.398       .  A
C640        N646   1.340       .  A
C641        C642   1.398       .  A
C641        H650   1.083       .  S
C642        C645   1.370       .  A
N643        C644   1.356       .  A
N643        H653   1.045       .  S
C644        C645   1.392       .  A
C645        H651   1.083       .  S
N646        C647   1.351       .  A
N646        H654   1.045       .  S
C647        C648   1.393       .  A
C648        H652   1.083       .  S
C655        C660   1.385       .  A
C655        C656   1.395       .  A
C655        N661   1.338       .  A
C656        C657   1.395       .  A
C656        H667   1.083       .  S
C657        C666   1.366       .  A
C657        C658   1.384       .  A
C658        C659   1.411       .  A
C658        N664   1.351       .  A
C659        C660   1.411       .  A
C659        H668   1.082       .  S
C660        C663   1.387       .  A
N661        C662   1.350       .  A
N661        H671   1.045       .  S
C662        C663   1.399       .  A
C663        H669   1.082       .  S
N664        C665   1.359       .  A
N664        H672   1.044       .  S
C665        C666   1.391       .  A
C666        H670   1.083       .  S
C673        C678   1.384       .  A
C673        C674   1.402       .  A
C673        N679   1.341       .  A
C674        C675   1.401   1_556  A
C674        H685   1.083       .  S
C675        C684   1.377       .  A
C675        C676   1.384       .  A
C676        C677   1.413       .  A
C676        N682   1.352       .  A
C677        C678   1.412   1_554  A
C677        H686   1.082       .  S
C678        C681   1.391       .  A
N679        C680   1.354       .  A
N679        H689   1.045       .  S
C680        C681   1.400       .  A
C681        H687   1.082       .  S
N682        C683   1.359       .  A
N682        H690   1.045       .  S
C683        C684   1.394       .  A
C684        H688   1.083       .  S
C691        C696   1.387       .  A
C691        C692   1.398   1_554  A
C691        N697   1.341       .  A
C692        C693   1.399       .  A
C692        H703   1.083       .  S
C693        C702   1.371       .  A
C693        C694   1.387       .  A
C694        C695   1.399   1_556  A
C694        N700   1.341       .  A
C695        C696   1.398       .  A
C695        H704   1.083       .  S
C696        C699   1.371       .  A
N697        C698   1.351       .  A
N697        H707   1.045       .  S
C698        C699   1.389       .  A
C699        H705   1.083       .  S
N700        C701   1.352       .  A
N700        H708   1.045       .  S
C701        C702   1.390       .  A
C702        H706   1.083       .  S
C709        C714   1.385       .  A
C709        C710   1.409       .  A
C709        N715   1.350       .  A
C710        C711   1.409       .  A
C710        H721   1.082       .  S
C711        C720   1.385       .  A
C711        C712   1.385       .  A
C712        C713   1.398       .  A
C712        N718   1.341       .  A
C713        C714   1.398       .  A
C713        H722   1.083       .  S
C714        C717   1.369       .  A
N715        C716   1.357       .  A
N715        H725   1.045       .  S
C716        C717   1.393       .  A
C717        H723   1.083       .  S
N718        C719   1.352       .  A
N718        H726   1.045       .  S
C719        C720   1.397       .  A
C720        H724   1.082       .  S
C727        C732   1.385       .  A
C727        C728   1.399       .  A
C727        N733   1.341       .  A
C728        C729   1.398       .  A
C728        H739   1.083       .  S
C729        C738   1.371       .  A
C729        C730   1.384       .  A
C730        C731   1.411       .  A
C730        N736   1.351       .  A
C731        C732   1.411       .  A
C731        H740   1.082       .  S
C732        C735   1.387       .  A
N733        C734   1.352       .  A
N733        H743   1.045       .  S
C734        C735   1.398       .  A
C735        H741   1.082       .  S
N736        C737   1.359       .  A
N736        H744   1.044       .  S
C737        C738   1.393       .  A
C738        H742   1.083       .  S
C745        C750   1.385       .  A
C745        C746   1.407       .  A
C745        N751   1.345       .  A
C746        C747   1.406   1_655  A
C746        H757   1.082       .  S
C747        C756   1.384       .  A
C747        C748   1.384       .  A
C748        C749   1.403       .  A
C748        N754   1.343       .  A
C749        C750   1.401   1_455  A
C749        H758   1.082       .  S
C750        C753   1.378       .  A
N751        C752   1.355       .  A
N751        H761   1.045       .  S
C752        C753   1.392       .  A
C753        H759   1.083       .  S
N754        C755   1.355       .  A
N754        H762   1.045       .  S
C755        C756   1.397       .  A
C756        H760   1.083       .  S
C763        C768   1.384       .  A
C763        C764   1.402   1_565  A
C763        N769   1.342       .  A
C764        C765   1.400       .  A
C764        H775   1.082       .  S
C765        C774   1.377       .  A
C765        C766   1.383       .  A
C766        C767   1.415       .  A
C766        N772   1.353       .  A
C767        C768   1.415   1_545  A
C767        H776   1.082       .  S
C768        C771   1.394       .  A
N769        C770   1.354       .  A
N769        H779   1.045       .  S
C770        C771   1.404       .  A
C771        H777   1.082       .  S
N772        C773   1.360       .  A
N772        H780   1.044       .  S
C773        C774   1.392       .  A
C774        H778   1.083       .  S
C781        C786   1.386       .  A
C781        C782   1.394       .  A
C781        N787   1.334       .  A
C782        C783   1.392       .  A
C782        H793   1.083       .  S
C783        C792   1.367       .  A
C783        C784   1.384       .  A
C784        C785   1.410       .  A
C784        N790   1.349       .  A
C785        C786   1.410       .  A
C785        H794   1.082       .  S
C786        C789   1.387       .  A
N787        C788   1.350       .  A
N787        H797   1.045       .  S
C788        C789   1.398       .  A
C789        H795   1.082       .  S
N790        C791   1.359       .  A
N790        H798   1.044       .  S
C791        C792   1.390       .  A
C792        H796   1.083       .  S
C799        C804   1.384       .  A
C799        C800   1.403   1_655  A
C799        N805   1.343       .  A
C800        C801   1.402       .  A
C800        H811   1.083   1_455  S
C801        C810   1.377       .  A
C801        C802   1.384       .  A
C802        C803   1.409       .  A
C802        N808   1.350       .  A
C803        C804   1.409   1_455  A
C803        H812   1.082       .  S
C804        C807   1.385       .  A
N805        C806   1.355       .  A
N805        H815   1.045       .  S
C806        C807   1.398       .  A
C807        H813   1.082       .  S
N808        C809   1.358       .  A
N808        H816   1.045       .  S
C809        C810   1.394       .  A
C810        H814   1.083       .  S
C817        C822   1.385       .  A
C817        C818   1.404       .  A
C817        N823   1.345       .  A
C818        C819   1.403   1_556  A
C818        H829   1.082       .  S
C819        C828   1.379       .  A
C819        C820   1.384       .  A
C820        C821   1.405       .  A
C820        N826   1.345       .  A
C821        C822   1.405   1_554  A
C821        H830   1.083       .  S
C822        C825   1.380       .  A
N823        C824   1.354       .  A
N823        H833   1.045       .  S
C824        C825   1.395       .  A
C825        H831   1.083       .  S
N826        C827   1.355       .  A
N826        H834   1.045       .  S
C827        C828   1.394       .  A
C828        H832   1.083       .  S
C835        C840   1.385       .  A
C835        C836   1.401   1_565  A
C835        N841   1.341       .  A
C836        C837   1.400       .  A
C836        H847   1.083       .  S
C837        C846   1.375       .  A
C837        C838   1.384       .  A
C838        C839   1.410       .  A
C838        N844   1.349       .  A
C839        C840   1.409   1_545  A
C839        H848   1.082       .  S
C840        C843   1.386       .  A
N841        C842   1.354       .  A
N841        H851   1.045       .  S
C842        C843   1.398       .  A
C843        H849   1.082       .  S
N844        C845   1.358       .  A
N844        H852   1.045       .  S
C845        C846   1.391       .  A
C846        H850   1.083       .  S
C853        C858   1.385       .  A
C853        C854   1.402       .  A
C853        N859   1.344       .  A
C854        C855   1.401   1_554  A
C854        H865   1.082       .  S
C855        C864   1.377       .  A
C855        C856   1.385       .  A
C856        C857   1.405       .  A
C856        N862   1.345       .  A
C857        C858   1.404   1_556  A
C857        H866   1.083       .  S
C858        C861   1.379       .  A
N859        C860   1.353       .  A
N859        H869   1.045       .  S
C860        C861   1.394       .  A
C861        H867   1.083       .  S
N862        C863   1.355       .  A
N862        H870   1.045       .  S
C863        C864   1.392       .  A
C864        H868   1.083       .  S
C871        C876   1.385       .  A
C871        C872   1.405   1_556  A
C871        N877   1.347       .  A
C872        C873   1.405       .  A
C872        H883   1.082       .  S
C873        C882   1.380       .  A
C873        C874   1.385       .  A
C874        C875   1.405   1_554  A
C874        N880   1.346       .  A
C875        C876   1.405       .  A
C875        H884   1.082       .  S
C876        C879   1.379       .  A
N877        C878   1.356       .  A
N877        H887   1.045       .  S
C878        C879   1.395       .  A
C879        H885   1.083       .  S
N880        C881   1.356       .  A
N880        H888   1.045       .  S
C881        C882   1.395       .  A
C882        H886   1.083       .  S
C889        C894   1.385       .  A
C889        C890   1.399       .  A
C889        N895   1.339       .  A
C890        C891   1.397       .  A
C890        H901   1.083       .  S
C891        C900   1.371       .  A
C891        C892   1.386       .  A
C892        C893   1.407       .  A
C892        N898   1.348       .  A
C893        C894   1.407       .  A
C893        H902   1.082       .  S
C894        C897   1.384       .  A
N895        C896   1.353       .  A
N895        H905   1.045       .  S
C896        C897   1.397       .  A
C897        H903   1.082       .  S
N898        C899   1.355       .  A
N898        H906   1.044       .  S
C899        C900   1.390       .  A
C900        H904   1.082       .  S
C907        C912   1.384       .  A
C907        C908   1.411       .  A
C907        N913   1.350       .  A
C908        C909   1.410       .  A
C908        H919   1.082       .  S
C909        C918   1.387       .  A
C909        C910   1.384       .  A
C910        C911   1.404       .  A
C910        N916   1.344       .  A
C911        C912   1.403       .  A
C911        H920   1.082       .  S
C912        C915   1.379       .  A
N913        C914   1.359       .  A
N913        H923   1.045       .  S
C914        C915   1.393       .  A
C915        H921   1.083       .  S
N916        C917   1.356       .  A
N916        H924   1.045       .  S
C917        C918   1.398       .  A
C918        H922   1.082       .  S
C925        C930   1.384       .  A
C925        C926   1.406   1_556  A
C925        N931   1.346       .  A
C926        C927   1.405       .  A
C926        H937   1.082       .  S
C927        C936   1.380       .  A
C927        C928   1.384       .  A
C928        C929   1.407   1_554  A
C928        N934   1.347       .  A
C929        C930   1.407       .  A
C929        H938   1.082       .  S
C930        C933   1.383       .  A
N931        C932   1.357       .  A
N931        H941   1.045       .  S
C932        C933   1.397       .  A
C933        H939   1.082       .  S
N934        C935   1.357       .  A
N934        H942   1.045       .  S
C935        C936   1.395       .  A
C936        H940   1.083       .  S
C943        C948   1.385       .  A
C943        C944   1.395       .  A
C943        N949   1.337       .  A
C944        C945   1.394       .  A
C944        H955   1.083       .  S
C945        C954   1.366       .  A
C945        C946   1.384       .  A
C946        C947   1.413       .  A
C946        N952   1.354       .  A
C947        C948   1.413       .  A
C947        H956   1.082       .  S
C948        C951   1.390       .  A
N949        C950   1.352       .  A
N949        H959   1.045       .  S
C950        C951   1.401       .  A
C951        H957   1.082       .  S
N952        C953   1.360       .  A
N952        H960   1.044       .  S
C953        C954   1.389       .  A
C954        H958   1.083       .  S
C961        C966   1.385       .  A
C961        C962   1.411       .  A
C961        N967   1.352       .  A
C962        C963   1.410       .  A
C962        H973   1.082       .  S
C963        C972   1.386       .  A
C963        C964   1.385       .  A
C964        C965   1.397       .  A
C964        N970   1.339       .  A
C965        C966   1.396       .  A
C965        H974   1.083       .  S
C966        C969   1.369       .  A
N967        C968   1.359       .  A
N967        H977   1.044       .  S
C968        C969   1.390       .  A
C969        H975   1.082       .  S
N970        C971   1.352       .  A
N970        H978   1.045       .  S
C971        C972   1.398       .  A
C972        H976   1.082       .  S
C979        C984   1.383       .  A
C979        C980   1.414       .  A
C979        N985   1.352       .  A
C980        C981   1.413       .  A
C980        H991   1.082       .  S
C981        C990   1.391       .  A
C981        C982   1.383       .  A
C982        C983   1.406       .  A
C982        N988   1.345       .  A
C983        C984   1.405       .  A
C983        H992   1.082       .  S
C984        C987   1.381       .  A
N985        C986   1.360       .  A
N985        H995   1.045       .  S
C986        C987   1.395       .  A
C987        H993   1.083       .  S
N988        C989   1.357       .  A
N988        H996   1.045       .  S
C989        C990   1.401       .  A
C990        H994   1.082       .  S
C997       C1002   1.384       .  A
C997        C998   1.406   1_556  A
C997       N1003   1.348       .  A
C998        C999   1.407       .  A
C998       H1009   1.082       .  S
C999       C1008   1.381       .  A
C999       C1000   1.384       .  A
C1000      C1001   1.406   1_554  A
C1000      N1006   1.347       .  A
C1001      C1002   1.406       .  A
C1001      H1010   1.082       .  S
C1002      C1005   1.380       .  A
N1003      C1004   1.357       .  A
N1003      H1013   1.045       .  S
C1004      C1005   1.395       .  A
C1005      H1011   1.083       .  S
N1006      C1007   1.356       .  A
N1006      H1014   1.045       .  S
C1007      C1008   1.396       .  A
C1008      H1012   1.083       .  S
C1015      C1020   1.385       .  A
C1015      C1016   1.405   1_554  A
C1015      N1021   1.345       .  A
C1016      C1017   1.404       .  A
C1016      H1027   1.082       .  S
C1017      C1026   1.381       .  A
C1017      C1018   1.384       .  A
C1018      C1019   1.403   1_556  A
C1018      N1024   1.342       .  A
C1019      C1020   1.402       .  A
C1019      H1028   1.083       .  S
C1020      C1023   1.377       .  A
N1021      C1022   1.355       .  A
N1021      H1031   1.045       .  S
C1022      C1023   1.393       .  A
C1023      H1029   1.083       .  S
N1024      C1025   1.354       .  A
N1024      H1032   1.045       .  S
C1025      C1026   1.395       .  A
C1026      H1030   1.082       .  S
C1033      C1038   1.384       .  A
C1033      C1034   1.399       .  A
C1033      N1039   1.341       .  A
C1034      C1035   1.398       .  A
C1034      H1045   1.083       .  S
C1035      C1044   1.372       .  A
C1035      C1036   1.384       .  A
C1036      C1037   1.412       .  A
C1036      N1042   1.352       .  A
C1037      C1038   1.412       .  A
C1037      H1046   1.082       .  S
C1038      C1041   1.388       .  A
N1039      C1040   1.354       .  A
N1039      H1049   1.045       .  S
C1040      C1041   1.400       .  A
C1041      H1047   1.082       .  S
N1042      C1043   1.359       .  A
N1042      H1050   1.044       .  S
C1043      C1044   1.391       .  A
C1044      H1048   1.082       .  S
C1051      C1056   1.385       .  A
C1051      C1052   1.398       .  A
C1051      N1057   1.338       .  A
C1052      C1053   1.396       .  A
C1052      H1063   1.083       .  S
C1053      C1062   1.370       .  A
C1053      C1054   1.384       .  A
C1054      C1055   1.412       .  A
C1054      N1060   1.351       .  A
C1055      C1056   1.412       .  A
C1055      H1064   1.082       .  S
C1056      C1059   1.390       .  A
N1057      C1058   1.353       .  A
N1057      H1067   1.045       .  S
C1058      C1059   1.399       .  A
C1059      H1065   1.082       .  S
N1060      C1061   1.360       .  A
N1060      H1068   1.044       .  S
C1061      C1062   1.392       .  A
C1062      H1066   1.082       .  S
C1069      C1074   1.384       .  A
C1069      C1070   1.405       .  A
C1069      N1075   1.347       .  A
C1070      C1071   1.405       .  A
C1070      H1081   1.082       .  S
C1071      C1080   1.381       .  A
C1071      C1072   1.384       .  A
C1072      C1073   1.408       .  A
C1072      N1078   1.348       .  A
C1073      C1074   1.407       .  A
C1073      H1082   1.082       .  S
C1074      C1077   1.382       .  A
N1075      C1076   1.356       .  A
N1075      H1085   1.045       .  S
C1076      C1077   1.398       .  A
C1077      H1083   1.083       .  S
N1078      C1079   1.358       .  A
N1078      H1086   1.045       .  S
C1079      C1080   1.396       .  A
C1080      H1084   1.082       .  S
C1087      C1092   1.384       .  A
C1087      C1088   1.406       .  A
C1087      N1093   1.345       .  A
C1088      C1089   1.405       .  A
C1088      H1099   1.082       .  S
C1089      C1098   1.382       .  A
C1089      C1090   1.384       .  A
C1090      C1091   1.405       .  A
C1090      N1096   1.345       .  A
C1091      C1092   1.404       .  A
C1091      H1100   1.082       .  S
C1092      C1095   1.381       .  A
N1093      C1094   1.357       .  A
N1093      H1103   1.045       .  S
C1094      C1095   1.395       .  A
C1095      H1101   1.082       .  S
N1096      C1097   1.356       .  A
N1096      H1104   1.045       .  S
C1097      C1098   1.397       .  A
C1098      H1102   1.082       .  S
C1105      C1110   1.384       .  A
C1105      C1106   1.407       .  A
C1105      N1111   1.346       .  A
C1106      C1107   1.405       .  A
C1106      H1117   1.082       .  S
C1107      C1116   1.381       .  A
C1107      C1108   1.384       .  A
C1108      C1109   1.407       .  A
C1108      N1114   1.346       .  A
C1109      C1110   1.407       .  A
C1109      H1118   1.082       .  S
C1110      C1113   1.384       .  A
N1111      C1112   1.357       .  A
N1111      H1121   1.045       .  S
C1112      C1113   1.397       .  A
C1113      H1119   1.082       .  S
N1114      C1115   1.356       .  A
N1114      H1122   1.045       .  S
C1115      C1116   1.395       .  A
C1116      H1120   1.083       .  S
C1123      C1128   1.384       .  A
C1123      C1124   1.404       .  A
C1123      N1129   1.345       .  A
C1124      C1125   1.403       .  A
C1124      H1135   1.082       .  S
C1125      C1134   1.378       .  A
C1125      C1126   1.384       .  A
C1126      C1127   1.407       .  A
C1126      N1132   1.347       .  A
C1127      C1128   1.406       .  A
C1127      H1136   1.082       .  S
C1128      C1131   1.382       .  A
N1129      C1130   1.356       .  A
N1129      H1139   1.045       .  S
C1130      C1131   1.397       .  A
C1131      H1137   1.082       .  S
N1132      C1133   1.357       .  A
N1132      H1140   1.045       .  S
C1133      C1134   1.395       .  A
C1134      H1138   1.082       .  S
C1141      C1146   1.386       .  A
C1141      C1142   1.400       .  A
C1141      N1147   1.339       .  A
C1142      C1143   1.398       .  A
C1142      H1153   1.083       .  S
C1143      C1152   1.375       .  A
C1143      C1144   1.386       .  A
C1144      C1145   1.401       .  A
C1144      N1150   1.339       .  A
C1145      C1146   1.398       .  A
C1145      H1154   1.083       .  S
C1146      C1149   1.375       .  A
N1147      C1148   1.352       .  A
N1147      H1157   1.045       .  S
C1148      C1149   1.391       .  A
C1149      H1155   1.083       .  S
N1150      C1151   1.352       .  A
N1150      H1158   1.045       .  S
C1151      C1152   1.391       .  A
C1152      H1156   1.083       .  S
C1159      C1164   1.386       .  A
C1159      C1160   1.394       .  A
C1159      N1165   1.336       .  A
C1160      C1161   1.394       .  A
C1160      H1171   1.083       .  S
C1161      C1170   1.364       .  A
C1161      C1162   1.384       .  A
C1162      C1163   1.410       .  A
C1162      N1168   1.351       .  A
C1163      C1164   1.410       .  A
C1163      H1172   1.082       .  S
C1164      C1167   1.386       .  A
N1165      C1166   1.349       .  A
N1165      H1175   1.044       .  S
C1166      C1167   1.397       .  A
C1167      H1173   1.082       .  S
N1168      C1169   1.359       .  A
N1168      H1176   1.044       .  S
C1169      C1170   1.391       .  A
C1170      H1174   1.083       .  S
C1177      C1182   1.384       .  A
C1177      C1178   1.406       .  A
C1177      N1183   1.343       .  A
C1178      C1179   1.404       .  A
C1178      H1189   1.082       .  S
C1179      C1188   1.383       .  A
C1179      C1180   1.384       .  A
C1180      C1181   1.407       .  A
C1180      N1186   1.345       .  A
C1181      C1182   1.405       .  A
C1181      H1190   1.082       .  S
C1182      C1185   1.384       .  A
N1183      C1184   1.357       .  A
N1183      H1193   1.045       .  S
C1184      C1185   1.397       .  A
C1185      H1191   1.082       .  S
N1186      C1187   1.357       .  A
N1186      H1194   1.045       .  S
C1187      C1188   1.397       .  A
C1188      H1192   1.082       .  S
C1195      C1200   1.386       .  A
C1195      C1196   1.401       .  A
C1195      N1201   1.341       .  A
C1196      C1197   1.400       .  A
C1196      H1207   1.083       .  S
C1197      C1206   1.375       .  A
C1197      C1198   1.387       .  A
C1198      C1199   1.400       .  A
C1198      N1204   1.340       .  A
C1199      C1200   1.398       .  A
C1199      H1208   1.083       .  S
C1200      C1203   1.375       .  A
N1201      C1202   1.354       .  A
N1201      H1211   1.045       .  S
C1202      C1203   1.390       .  A
C1203      H1209   1.082       .  S
N1204      C1205   1.352       .  A
N1204      H1212   1.045       .  S
C1205      C1206   1.391       .  A
C1206      H1210   1.083       .  S
C1213      C1218   1.385       .  A
C1213      C1214   1.399       .  A
C1213      N1219   1.338       .  A
C1214      C1215   1.397       .  A
C1214      H1225   1.083       .  S
C1215      C1224   1.373       .  A
C1215      C1216   1.385       .  A
C1216      C1217   1.410       .  A
C1216      N1222   1.348       .  A
C1217      C1218   1.409       .  A
C1217      H1226   1.082       .  S
C1218      C1221   1.389       .  A
N1219      C1220   1.354       .  A
N1219      H1229   1.045       .  S
C1220      C1221   1.399       .  A
C1221      H1227   1.082       .  S
N1222      C1223   1.357       .  A
N1222      H1230   1.045       .  S
C1223      C1224   1.390       .  A
C1224      H1228   1.082       .  S
C1231      C1236   1.384       .  A
C1231      C1232   1.406       .  A
C1231      N1237   1.345       .  A
C1232      C1233   1.406       .  A
C1232      H1243   1.083       .  S
C1233      C1242   1.381       .  A
C1233      C1234   1.385       .  A
C1234      C1235   1.403       .  A
C1234      N1240   1.343       .  A
C1235      C1236   1.401       .  A
C1235      H1244   1.082       .  S
C1236      C1239   1.378       .  A
N1237      C1238   1.358       .  A
N1237      H1247   1.045       .  S
C1238      C1239   1.393       .  A
C1239      H1245   1.082       .  S
N1240      C1241   1.355       .  A
N1240      H1248   1.045       .  S
C1241      C1242   1.398       .  A
C1242      H1246   1.082       .  S
C1249      C1254   1.384       .  A
C1249      C1250   1.412       .  A
C1249      N1255   1.352       .  A
C1250      C1251   1.412       .  A
C1250      H1261   1.082       .  S
C1251      C1260   1.389       .  A
C1251      C1252   1.384       .  A
C1252      C1253   1.401       .  A
C1252      N1258   1.342       .  A
C1253      C1254   1.399       .  A
C1253      H1262   1.083       .  S
C1254      C1257   1.373       .  A
N1255      C1256   1.359       .  A
N1255      H1265   1.045       .  S
C1256      C1257   1.391       .  A
C1257      H1263   1.083       .  S
N1258      C1259   1.354       .  A
N1258      H1266   1.045       .  S
C1259      C1260   1.400       .  A
C1260      H1264   1.082       .  S
C1267      C1272   1.386       .  A
C1267      C1268   1.395       .  A
C1267      N1273   1.336       .  A
C1268      C1269   1.394       .  A
C1268      H1279   1.083       .  S
C1269      C1278   1.365       .  A
C1269      C1270   1.385       .  A
C1270      C1271   1.407       .  A
C1270      N1276   1.349       .  A
C1271      C1272   1.407       .  A
C1271      H1280   1.082       .  S
C1272      C1275   1.382       .  A
N1273      C1274   1.350       .  A
N1273      H1283   1.045       .  S
C1274      C1275   1.394       .  A
C1275      H1281   1.082       .  S
N1276      C1277   1.356       .  A
N1276      H1284   1.044       .  S
C1277      C1278   1.392       .  A
C1278      H1282   1.082       .  S
C1285      C1290   1.384       .  A
C1285      C1286   1.411       .  A
C1285      N1291   1.351       .  A
C1286      C1287   1.411       .  A
C1286      H1297   1.082       .  S
C1287      C1296   1.388       .  A
C1287      C1288   1.385       .  A
C1288      C1289   1.397       .  A
C1288      N1294   1.338       .  A
C1289      C1290   1.396       .  A
C1289      H1298   1.083       .  S
C1290      C1293   1.369       .  A
N1291      C1292   1.359       .  A
N1291      H1301   1.044       .  S
C1292      C1293   1.391       .  A
C1293      H1299   1.082       .  S
N1294      C1295   1.351       .  A
N1294      H1302   1.045       .  S
C1295      C1296   1.399       .  A
C1296      H1300   1.082       .  S
C1303      C1308   1.384       .  A
C1303      C1304   1.407       .  A
C1303      N1309   1.347       .  A
C1304      C1305   1.406       .  A
C1304      H1315   1.082       .  S
C1305      C1314   1.382       .  A
C1305      C1306   1.384       .  A
C1306      C1307   1.404       .  A
C1306      N1312   1.344       .  A
C1307      C1308   1.403       .  A
C1307      H1316   1.082       .  S
C1308      C1311   1.378       .  A
N1309      C1310   1.357       .  A
N1309      H1319   1.045       .  S
C1310      C1311   1.395       .  A
C1311      H1317   1.082       .  S
N1312      C1313   1.356       .  A
N1312      H1320   1.045       .  S
C1313      C1314   1.397       .  A
C1314      H1318   1.082       .  S
C1321      C1326   1.384       .  A
C1321      C1322   1.407       .  A
C1321      N1327   1.348       .  A
C1322      C1323   1.407       .  A
C1322      H1333   1.082       .  S
C1323      C1332   1.382       .  A
C1323      C1324   1.384       .  A
C1324      C1325   1.404       .  A
C1324      N1330   1.345       .  A
C1325      C1326   1.403       .  A
C1325      H1334   1.082       .  S
C1326      C1329   1.377       .  A
N1327      C1328   1.357       .  A
N1327      H1337   1.045       .  S
C1328      C1329   1.393       .  A
C1329      H1335   1.083       .  S
N1330      C1331   1.355       .  A
N1330      H1338   1.045       .  S
C1331      C1332   1.396       .  A
C1332      H1336   1.083       .  S
C1339      C1344   1.387       .  A
C1339      C1340   1.401       .  A
C1339      N1345   1.343       .  A
C1340      C1341   1.401       .  A
C1340      H1351   1.083       .  S
C1341      C1350   1.373       .  A
C1341      C1342   1.387       .  A
C1342      C1343   1.399       .  A
C1342      N1348   1.342       .  A
C1343      C1344   1.399       .  A
C1343      H1352   1.083       .  S
C1344      C1347   1.371       .  A
N1345      C1346   1.353       .  A
N1345      H1355   1.045       .  S
C1346      C1347   1.390       .  A
C1347      H1353   1.083       .  S
N1348      C1349   1.352       .  A
N1348      H1356   1.045       .  S
C1349      C1350   1.391       .  A
C1350      H1354   1.083       .  S
C1357      C1362   1.385       .  A
C1357      C1358   1.399       .  A
C1357      N1363   1.343       .  A
C1358      C1359   1.400       .  A
C1358      H1369   1.083       .  S
C1359      C1368   1.370       .  A
C1359      C1360   1.384       .  A
C1360      C1361   1.411       .  A
C1360      N1366   1.353       .  A
C1361      C1362   1.411       .  A
C1361      H1370   1.082       .  S
C1362      C1365   1.386       .  A
N1363      C1364   1.352       .  A
N1363      H1373   1.045       .  S
C1364      C1365   1.398       .  A
C1365      H1371   1.082       .  S
N1366      C1367   1.359       .  A
N1366      H1374   1.044       .  S
C1367      C1368   1.394       .  A
C1368      H1372   1.082       .  S
C1375      C1380   1.385       .  A
C1375      C1376   1.409       .  A
C1375      N1381   1.350       .  A
C1376      C1377   1.409       .  A
C1376      H1387   1.082       .  S
C1377      C1386   1.384       .  A
C1377      C1378   1.385       .  A
C1378      C1379   1.397       .  A
C1378      N1384   1.340       .  A
C1379      C1380   1.397       .  A
C1379      H1388   1.083       .  S
C1380      C1383   1.368       .  A
N1381      C1382   1.358       .  A
N1381      H1391   1.044       .  S
C1382      C1383   1.392       .  A
C1383      H1389   1.083       .  S
N1384      C1385   1.351       .  A
N1384      H1392   1.045       .  S
C1385      C1386   1.396       .  A
C1386      H1390   1.082       .  S
C1393      C1398   1.385       .  A
C1393      C1394   1.404       .  A
C1393      N1399   1.346       .  A
C1394      C1395   1.404       .  A
C1394      H1405   1.082       .  S
C1395      C1404   1.378       .  A
C1395      C1396   1.385       .  A
C1396      C1397   1.403       .  A
C1396      N1402   1.345       .  A
C1397      C1398   1.403       .  A
C1397      H1406   1.082       .  S
C1398      C1401   1.376       .  A
N1399      C1400   1.356       .  A
N1399      H1409   1.045       .  S
C1400      C1401   1.395       .  A
C1401      H1407   1.082       .  S
N1402      C1403   1.355       .  A
N1402      H1410   1.045       .  S
C1403      C1404   1.395       .  A
C1404      H1408   1.082       .  S
C1411      C1416   1.385       .  A
C1411      C1412   1.403       .  A
C1411      N1417   1.344       .  A
C1412      C1413   1.402       .  A
C1412      H1423   1.083       .  S
C1413      C1422   1.378       .  A
C1413      C1414   1.385       .  A
C1414      C1415   1.408       .  A
C1414      N1420   1.349       .  A
C1415      C1416   1.408       .  A
C1415      H1424   1.082       .  S
C1416      C1419   1.385       .  A
N1417      C1418   1.353       .  A
N1417      H1427   1.045       .  S
C1418      C1419   1.397       .  A
C1419      H1425   1.082       .  S
N1420      C1421   1.357       .  A
N1420      H1428   1.045       .  S
C1421      C1422   1.395       .  A
C1422      H1426   1.083       .  S
C1429      C1434   1.385       .  A
C1429      C1430   1.405       .  A
C1429      N1435   1.344       .  A
C1430      C1431   1.403       .  A
C1430      H1441   1.082       .  S
C1431      C1440   1.380       .  A
C1431      C1432   1.385       .  A
C1432      C1433   1.402       .  A
C1432      N1438   1.342       .  A
C1433      C1434   1.401       .  A
C1433      H1442   1.082       .  S
C1434      C1437   1.377       .  A
N1435      C1436   1.356       .  A
N1435      H1445   1.045       .  S
C1436      C1437   1.394       .  A
C1437      H1443   1.082       .  S
N1438      C1439   1.355       .  A
N1438      H1446   1.045       .  S
C1439      C1440   1.395       .  A
C1440      H1444   1.082       .  S
C1447      C1452   1.384       .  A
C1447      C1448   1.404   1_565  A
C1447      N1453   1.345       .  A
C1448      C1449   1.404       .  A
C1448      H1459   1.083       .  S
C1449      C1458   1.378       .  A
C1449      C1450   1.384       .  A
C1450      C1451   1.408       .  A
C1450      N1456   1.349       .  A
C1451      C1452   1.407   1_545  A
C1451      H1460   1.082       .  S
C1452      C1455   1.383       .  A
N1453      C1454   1.354       .  A
N1453      H1463   1.045       .  S
C1454      C1455   1.396       .  A
C1455      H1461   1.082       .  S
N1456      C1457   1.357       .  A
N1456      H1464   1.045       .  S
C1457      C1458   1.396       .  A
C1458      H1462   1.083       .  S
C1465      C1470   1.384       .  A
C1465      C1466   1.413       .  A
C1465      N1471   1.353       .  A
C1466      C1467   1.413       .  A
C1466      H1477   1.082       .  S
C1467      C1476   1.390       .  A
C1467      C1468   1.385       .  A
C1468      C1469   1.395       .  A
C1468      N1474   1.336       .  A
C1469      C1470   1.394       .  A
C1469      H1478   1.083       .  S
C1470      C1473   1.367       .  A
N1471      C1472   1.361       .  A
N1471      H1481   1.044       .  S
C1472      C1473   1.391       .  A
C1473      H1479   1.082       .  S
N1474      C1475   1.351       .  A
N1474      H1482   1.045       .  S
C1475      C1476   1.399       .  A
C1476      H1480   1.082       .  S
C1483      C1488   1.384       .  A
C1483      C1484   1.405       .  A
C1483      N1489   1.344       .  A
C1484      C1485   1.404       .  A
C1484      H1495   1.082       .  S
C1485      C1494   1.381       .  A
C1485      C1486   1.384       .  A
C1486      C1487   1.405       .  A
C1486      N1492   1.345       .  A
C1487      C1488   1.404       .  A
C1487      H1496   1.082       .  S
C1488      C1491   1.382       .  A
N1489      C1490   1.357       .  A
N1489      H1499   1.045       .  S
C1490      C1491   1.396       .  A
C1491      H1497   1.082       .  S
N1492      C1493   1.356       .  A
N1492      H1500   1.045       .  S
C1493      C1494   1.396       .  A
C1494      H1498   1.082       .  S
C1501      C1506   1.384       .  A
C1501      C1502   1.405       .  A
C1501      N1507   1.344       .  A
C1502      C1503   1.404   1_655  A
C1502      H1513   1.083       .  S
C1503      C1512   1.379       .  A
C1503      C1504   1.384       .  A
C1504      C1505   1.409   1_455  A
C1504      N1510   1.349       .  A
C1505      C1506   1.408       .  A
C1505      H1514   1.082       .  S
C1506      C1509   1.386       .  A
N1507      C1508   1.356       .  A
N1507      H1517   1.045       .  S
C1508      C1509   1.396       .  A
C1509      H1515   1.082       .  S
N1510      C1511   1.358       .  A
N1510      H1518   1.045       .  S
C1511      C1512   1.394       .  A
C1512      H1516   1.083       .  S
C1519      C1524   1.384       .  A
C1519      C1520   1.394       .  A
C1519      N1525   1.337       .  A
C1520      C1521   1.394       .  A
C1520      H1531   1.083       .  S
C1521      C1530   1.365       .  A
C1521      C1522   1.385       .  A
C1522      C1523   1.411       .  A
C1522      N1528   1.351       .  A
C1523      C1524   1.411       .  A
C1523      H1532   1.082       .  S
C1524      C1527   1.388       .  A
N1525      C1526   1.352       .  A
N1525      H1535   1.040       .  S
C1526      C1527   1.400       .  A
C1527      H1533   1.082       .  S
N1528      C1529   1.358       .  A
N1528      H1536   1.045       .  S
C1529      C1530   1.389       .  A
C1530      H1534   1.083       .  S
C1537      C1542   1.383       .  A
C1537      C1538   1.401       .  A
C1537      N1543   1.341       .  A
C1538      C1539   1.400       .  A
C1538      H1549   1.082       .  S
C1539      C1548   1.375       .  A
C1539      C1540   1.383       .  A
C1540      C1541   1.416       .  A
C1540      N1546   1.354       .  A
C1541      C1542   1.415       .  A
C1541      H1550   1.082       .  S
C1542      C1545   1.395       .  A
N1543      C1544   1.355       .  A
N1543      H1553   1.039       .  S
C1544      C1545   1.402       .  A
C1545      H1551   1.082       .  S
N1546      C1547   1.361       .  A
N1546      H1554   1.044       .  S
C1547      C1548   1.395       .  A
C1548      H1552   1.083       .  S
C1555      C1560   1.385       .  A
C1555      C1556   1.405       .  A
C1555      N1561   1.345       .  A
C1556      C1557   1.405       .  A
C1556      H1567   1.082       .  S
C1557      C1566   1.379       .  A
C1557      C1558   1.385       .  A
C1558      C1559   1.402       .  A
C1558      N1564   1.343       .  A
C1559      C1560   1.401       .  A
C1559      H1568   1.082       .  S
C1560      C1563   1.376       .  A
N1561      C1562   1.356       .  A
N1561      H1571   1.045       .  S
C1562      C1563   1.393       .  A
C1563      H1569   1.082       .  S
N1564      C1565   1.355       .  A
N1564      H1572   1.045       .  S
C1565      C1566   1.396       .  A
C1566      H1570   1.082       .  S
C1573      C1578   1.384       .  A
C1573      C1574   1.404   1_565  A
C1573      N1579   1.344       .  A
C1574      C1575   1.403       .  A
C1574      H1585   1.082       .  S
C1575      C1584   1.379       .  A
C1575      C1576   1.385       .  A
C1576      C1577   1.406       .  A
C1576      N1582   1.346       .  A
C1577      C1578   1.405   1_545  A
C1577      H1586   1.082       .  S
C1578      C1581   1.381       .  A
N1579      C1580   1.355       .  A
N1579      H1589   1.045       .  S
C1580      C1581   1.395       .  A
C1581      H1587   1.082       .  S
N1582      C1583   1.355       .  A
N1582      H1590   1.045       .  S
C1583      C1584   1.394       .  A
C1584      H1588   1.083       .  S
C1591      C1596   1.384       .  A
C1591      C1592   1.406       .  A
C1591      N1597   1.348       .  A
C1592      C1593   1.406       .  A
C1592      H1603   1.082       .  S
C1593      C1602   1.379       .  A
C1593      C1594   1.385       .  A
C1594      C1595   1.404       .  A
C1594      N1600   1.346       .  A
C1595      C1596   1.404       .  A
C1595      H1604   1.082       .  S
C1596      C1599   1.378       .  A
N1597      C1598   1.357       .  A
N1597      H1607   1.045       .  S
C1598      C1599   1.394       .  A
C1599      H1605   1.083       .  S
N1600      C1601   1.355       .  A
N1600      H1608   1.045       .  S
C1601      C1602   1.396       .  A
C1602      H1606   1.083       .  S
C1609      C1614   1.384       .  A
C1609      C1610   1.405       .  A
C1609      N1615   1.344       .  A
C1610      C1611   1.404       .  A
C1610      H1621   1.083       .  S
C1611      C1620   1.381       .  A
C1611      C1612   1.384       .  A
C1612      C1613   1.405       .  A
C1612      N1618   1.344       .  A
C1613      C1614   1.403       .  A
C1613      H1622   1.082       .  S
C1614      C1617   1.380       .  A
N1615      C1616   1.355       .  A
N1615      H1625   1.045       .  S
C1616      C1617   1.394       .  A
C1617      H1623   1.083       .  S
N1618      C1619   1.356       .  A
N1618      H1626   1.045       .  S
C1619      C1620   1.395       .  A
C1620      H1624   1.083       .  S
C1627      C1632   1.384       .  A
C1627      C1628   1.405       .  A
C1627      N1633   1.345       .  A
C1628      C1629   1.404       .  A
C1628      H1639   1.082       .  S
C1629      C1638   1.381       .  A
C1629      C1630   1.384       .  A
C1630      C1631   1.404       .  A
C1630      N1636   1.343       .  A
C1631      C1632   1.403       .  A
C1631      H1640   1.082       .  S
C1632      C1635   1.378       .  A
N1633      C1634   1.356       .  A
N1633      H1643   1.045       .  S
C1634      C1635   1.395       .  A
C1635      H1641   1.082       .  S
N1636      C1637   1.356       .  A
N1636      H1644   1.045       .  S
C1637      C1638   1.396       .  A
C1638      H1642   1.082       .  S
C1645      C1650   1.384       .  A
C1645      C1646   1.406   1_655  A
C1645      N1651   1.347       .  A
C1646      C1647   1.406       .  A
C1646      H1657   1.082       .  S
C1647      C1656   1.382       .  A
C1647      C1648   1.384       .  A
C1648      C1649   1.405       .  A
C1648      N1654   1.346       .  A
C1649      C1650   1.405   1_455  A
C1649      H1658   1.082       .  S
C1650      C1653   1.379       .  A
N1651      C1652   1.356       .  A
N1651      H1661   1.045       .  S
C1652      C1653   1.396       .  A
C1653      H1659   1.083       .  S
N1654      C1655   1.355       .  A
N1654      H1662   1.045       .  S
C1655      C1656   1.395       .  A
C1656      H1660   1.082       .  S
C1663      C1668   1.385       .  A
C1663      C1664   1.403       .  A
C1663      N1669   1.343       .  A
C1664      C1665   1.402       .  A
C1664      H1675   1.083       .  S
C1665      C1674   1.378       .  A
C1665      C1666   1.385       .  A
C1666      C1667   1.403       .  A
C1666      N1672   1.343       .  A
C1667      C1668   1.402       .  A
C1667      H1676   1.083       .  S
C1668      C1671   1.377       .  A
N1669      C1670   1.353       .  A
N1669      H1679   1.045       .  S
C1670      C1671   1.393       .  A
C1671      H1677   1.083       .  S
N1672      C1673   1.354       .  A
N1672      H1680   1.045       .  S
C1673      C1674   1.393       .  A
C1674      H1678   1.083       .  S
C1681      C1686   1.385       .  A
C1681      C1682   1.404       .  A
C1681      N1687   1.343       .  A
C1682      C1683   1.402       .  A
C1682      H1693   1.082       .  S
C1683      C1692   1.380       .  A
C1683      C1684   1.385       .  A
C1684      C1685   1.405       .  A
C1684      N1690   1.344       .  A
C1685      C1686   1.404       .  A
C1685      H1694   1.083       .  S
C1686      C1689   1.381       .  A
N1687      C1688   1.355       .  A
N1687      H1697   1.045       .  S
C1688      C1689   1.396       .  A
C1689      H1695   1.083       .  S
N1690      C1691   1.356       .  A
N1690      H1698   1.045       .  S
C1691      C1692   1.394       .  A
C1692      H1696   1.082       .  S
C1699      C1704   1.385       .  A
C1699      C1700   1.400       .  A
C1699      N1705   1.338       .  A
C1700      C1701   1.398       .  A
C1700      H1711   1.083       .  S
C1701      C1710   1.374       .  A
C1701      C1702   1.384       .  A
C1702      C1703   1.410       .  A
C1702      N1708   1.349       .  A
C1703      C1704   1.409       .  A
C1703      H1712   1.082       .  S
C1704      C1707   1.388       .  A
N1705      C1706   1.352       .  A
N1705      H1715   1.047       .  S
C1706      C1707   1.397       .  A
C1707      H1713   1.082       .  S
N1708      C1709   1.358       .  A
N1708      H1716   1.042       .  S
C1709      C1710   1.393       .  A
C1710      H1714   1.082       .  S
C1717      C1722   1.384       .  A
C1717      C1718   1.406       .  A
C1717      N1723   1.346       .  A
C1718      C1719   1.405       .  A
C1718      H1729   1.082       .  S
C1719      C1728   1.382       .  A
C1719      C1720   1.384       .  A
C1720      C1721   1.405       .  A
C1720      N1726   1.345       .  A
C1721      C1722   1.404       .  A
C1721      H1730   1.082       .  S
C1722      C1725   1.380       .  A
N1723      C1724   1.357       .  A
N1723      H1733   1.045       .  S
C1724      C1725   1.396       .  A
C1725      H1731   1.082       .  S
N1726      C1727   1.356       .  A
N1726      H1734   1.045       .  S
C1727      C1728   1.397       .  A
C1728      H1732   1.082       .  S
C1735      C1740   1.384       .  A
C1735      C1736   1.407       .  A
C1735      N1741   1.346       .  A
C1736      C1737   1.406       .  A
C1736      H1747   1.082       .  S
C1737      C1746   1.384       .  A
C1737      C1738   1.385       .  A
C1738      C1739   1.404       .  A
C1738      N1744   1.343       .  A
C1739      C1740   1.402       .  A
C1739      H1748   1.082       .  S
C1740      C1743   1.379       .  A
N1741      C1742   1.356       .  A
N1741      H1751   1.045       .  S
C1742      C1743   1.394       .  A
C1743      H1749   1.083       .  S
N1744      C1745   1.355       .  A
N1744      H1752   1.045       .  S
C1745      C1746   1.395       .  A
C1746      H1750   1.082       .  S
C1753      C1758   1.384       .  A
C1753      C1754   1.407       .  A
C1753      N1759   1.347       .  A
C1754      C1755   1.406       .  A
C1754      H1765   1.082       .  S
C1755      C1764   1.381       .  A
C1755      C1756   1.384       .  A
C1756      C1757   1.406       .  A
C1756      N1762   1.347       .  A
C1757      C1758   1.406       .  A
C1757      H1766   1.082       .  S
C1758      C1761   1.381       .  A
N1759      C1760   1.357       .  A
N1759      H1769   1.045       .  S
C1760      C1761   1.396       .  A
C1761      H1767   1.083       .  S
N1762      C1763   1.357       .  A
N1762      H1770   1.045       .  S
C1763      C1764   1.396       .  A
C1764      H1768   1.083       .  S
C1771      C1776   1.385       .  A
C1771      C1772   1.403       .  A
C1771      N1777   1.344       .  A
C1772      C1773   1.402       .  A
C1772      H1783   1.083       .  S
C1773      C1782   1.377       .  A
C1773      C1774   1.385       .  A
C1774      C1775   1.404       .  A
C1774      N1780   1.344       .  A
C1775      C1776   1.403       .  A
C1775      H1784   1.082       .  S
C1776      C1779   1.379       .  A
N1777      C1778   1.355       .  A
N1777      H1787   1.045       .  S
C1778      C1779   1.393       .  A
C1779      H1785   1.083       .  S
N1780      C1781   1.355       .  A
N1780      H1788   1.045       .  S
C1781      C1782   1.392       .  A
C1782      H1786   1.083       .  S
C1789      C1794   1.385       .  A
C1789      C1790   1.395       .  A
C1789      N1795   1.336       .  A
C1790      C1791   1.394       .  A
C1790      H1801   1.083       .  S
C1791      C1800   1.366       .  A
C1791      C1792   1.385       .  A
C1792      C1793   1.412       .  A
C1792      N1798   1.352       .  A
C1793      C1794   1.412       .  A
C1793      H1802   1.082       .  S
C1794      C1797   1.389       .  A
N1795      C1796   1.352       .  A
N1795      H1805   1.045       .  S
C1796      C1797   1.400       .  A
C1797      H1803   1.082       .  S
N1798      C1799   1.359       .  A
N1798      H1806   1.044       .  S
C1799      C1800   1.390       .  A
C1800      H1804   1.083       .  S
C1807      C1812   1.385       .  A
C1807      C1808   1.399       .  A
C1807      N1813   1.340       .  A
C1808      C1809   1.398       .  A
C1808      H1819   1.083       .  S
C1809      C1818   1.372       .  A
C1809      C1810   1.384       .  A
C1810      C1811   1.412       .  A
C1810      N1816   1.352       .  A
C1811      C1812   1.412       .  A
C1811      H1820   1.082       .  S
C1812      C1815   1.389       .  A
N1813      C1814   1.353       .  A
N1813      H1823   1.045       .  S
C1814      C1815   1.399       .  A
C1815      H1821   1.082       .  S
N1816      C1817   1.360       .  A
N1816      H1824   1.044       .  S
C1817      C1818   1.393       .  A
C1818      H1822   1.082       .  S
