geometry optimzed in LAMMPS
_audit_creation_date              2020-11-30 
_audit_creation_method            'lammps2cif' 
_symmetry_space_group_name_H-M    'P1' 
_symmetry_Int_Tables_number       1 
_symmetry_cell_setting            triclinic 
loop_ 
_symmetry_equiv_pos_as_xyz 
  x,y,z 
_cell_length_a                    39.39599354 
_cell_length_b                    39.414568747875535 
_cell_length_c                    70.36199440416998 
_cell_angle_alpha                 89.97289942565106 
_cell_angle_beta                  90.05865167727696 
_cell_angle_gamma                 119.95827924486501 
loop_ 
_atom_site_label 
_atom_site_type_symbol 
_atom_site_fract_x 
_atom_site_fract_y 
_atom_site_fract_z 
_atom_site_charge 
Zr1        Zr  0.60501483  0.76294894  0.64399105     2.17500
O2          O  0.56982562  0.71401969  0.66854327    -0.51600
O3          O  0.55383902  0.78018179  0.63964325    -0.74800
O4          O  0.61145346  0.79214176  0.67532186    -0.81500
O5          O  0.56995051  0.67943618  0.60807621    -0.83300
O6          O  0.67029721  0.84803754  0.67681777    -0.78900
O7          O  0.55362422  0.69766499  0.63569219    -0.90600
O8          O  0.57253854  0.82447741  0.61565249    -0.76500
O9          O  0.63619088  0.83050552  0.63577821    -0.86000
O10         O  0.60025865  0.76502596  0.61028331    -0.85700
O11         O  0.67117988  0.78903649  0.65511019    -0.72400
O12         O  0.63716963  0.72962040  0.63126533    -0.84600
Zr13       Zr  0.73126291  0.82712005  0.59995871     2.26400
Zr14       Zr  0.70244503  0.85682712  0.64617209     2.06300
Zr15       Zr  0.63312247  0.73293399  0.59743814     2.10000
Zr16       Zr  0.63257595  0.83231536  0.60201187     1.78800
O17         O  0.63567530  0.67277781  0.59447031    -0.93400
O18         O  0.64745140  0.89995217  0.60491394    -0.41200
O19         O  0.66531380  0.80045162  0.58860386    -0.77800
O20         O  0.69920721  0.86077107  0.61229916    -0.96500
O21         O  0.73525787  0.82471916  0.63357064    -0.89800
O22         O  0.69929178  0.75954934  0.60806318    -0.92700
C23         C  0.54874954  0.80360104  0.62881976     1.01100
C24         C  0.54685770  0.67314562  0.62221399     1.14000
C25         C  0.63774868  0.82234170  0.68425908     1.04800
O26         O  0.69455206  0.91424175  0.64734705    -0.94800
O27         O  0.76631268  0.90905858  0.63592343    -0.90600
O28         O  0.78433993  0.89138796  0.60856950    -0.83700
C29         C  0.79017099  0.91542894  0.62214579     1.11400
O30         O  0.67289755  0.70456276  0.66477957    -0.96800
Zr31       Zr  0.70389222  0.75745094  0.64163733     1.88900
O32         O  0.78752003  0.82018301  0.60795682    -0.73400
O33         O  0.75041521  0.88121785  0.67184768    -0.52700
O34         O  0.73710033  0.77807370  0.67222579    -0.97400
O35         O  0.70739913  0.69947725  0.63267187    -0.54600
O36         O  0.77313149  0.78358277  0.63477271    -0.74000
C37         C  0.79681584  0.80469923  0.62158217     0.98400
O38         O  0.75598274  0.86944706  0.57209738    -0.62800
O39         O  0.58938841  0.71803291  0.57031306    -0.57600
O40         O  0.73148090  0.79171604  0.57163461    -0.94300
O41         O  0.67025708  0.73883375  0.56859544    -0.92700
O42         O  0.58424624  0.80341166  0.57665305    -0.93000
O43         O  0.65333285  0.86987053  0.57260074    -0.91800
C44         C  0.70551475  0.76127687  0.56270865     1.17200
H45         H  0.57319251  0.75218611  0.60630523     0.33200
H46         H  0.71304664  0.88781390  0.60828003     0.44000
H47         H  0.71176514  0.74661791  0.60204885     0.37600
H48         H  0.67179114  0.78602840  0.66870931     0.34000
H49         H  0.62600298  0.90090568  0.59803569     0.25800
H50         H  0.74594278  0.90058075  0.67869787     0.31800
H51         H  0.75527250  0.76756847  0.67252758     0.37700
H52         H  0.57143978  0.81954362  0.57612369     0.32100
H53         H  0.57907296  0.68983092  0.56781656     0.31000
H54         H  0.62184189  0.66094998  0.58240902     0.32700
H55         H  0.72837255  0.70844243  0.62300379     0.31700
H56         H  0.66671622  0.85843329  0.56534614     0.35700
H57         H  0.73461496  0.85727366  0.56260816     0.28400
H58         H  0.55319393  0.72252469  0.67518104     0.32600
H59         H  0.69375813  0.69937669  0.66919344     0.35500
H60         H  0.56661819  0.71945593  0.57525458     0.28100
H61         H  0.75621616  0.89381988  0.57576086     0.40900
H62         H  0.66946043  0.90539726  0.65408668     0.31000
H63         H  0.64269705  0.90289571  0.61845763     0.38600
H64         H  0.68286712  0.68292586  0.62555567     0.30500
H65         H  0.74175064  0.85897578  0.68077239     0.30500
H66         H  0.59000822  0.71736160  0.67794538     0.30800
Zr67       Zr  0.78810294  0.56981573  0.36454611     2.17500
O68         O  0.74169383  0.52970937  0.33988234    -0.51600
O69         O  0.80304379  0.51779466  0.37092528    -0.74800
O70         O  0.81937863  0.57341710  0.33423203    -0.81500
O71         O  0.70293339  0.53889196  0.39905883    -0.83300
O72         O  0.87766577  0.63018632  0.33312822    -0.78900
O73         O  0.72065615  0.52206216  0.37138695    -0.90600
O74         O  0.84008020  0.53404783  0.39759239    -0.76500
O75         O  0.85517251  0.60095401  0.37367435    -0.86000
O76         O  0.78814528  0.56689789  0.39837934    -0.85700
O77         O  0.81613326  0.63515854  0.35205009    -0.72400
O78         O  0.75509668  0.60369558  0.37540393    -0.84600
Zr79       Zr  0.85357754  0.69861733  0.40669731     2.26400
Zr80       Zr  0.88343009  0.66659209  0.36195664     2.06300
Zr81       Zr  0.75690053  0.60202480  0.40941306     2.10000
Zr82       Zr  0.85506730  0.59871516  0.40748150     1.78800
O83         O  0.69392786  0.59931161  0.41192974    -0.93400
O84         O  0.91725973  0.60054115  0.40300101    -0.41200
O85         O  0.82397028  0.63338940  0.41929995    -0.77800
O86         O  0.88627544  0.66462263  0.39592851    -0.96500
O87         O  0.85201175  0.70107780  0.37300217    -0.89800
O88         O  0.78622961  0.66750557  0.39761386    -0.92700
C89         C  0.82180051  0.51076848  0.38381232     1.01100
C90         C  0.69621673  0.51611554  0.38474377     1.14000
C91         C  0.85145237  0.59764184  0.32589837     1.04800
O92         O  0.94375646  0.66410713  0.35963314    -0.94800
O93         O  0.93728571  0.73014029  0.37145503    -0.90600
O94         O  0.91956689  0.74984826  0.39805118    -0.83700
C95         C  0.94419549  0.75499056  0.38483413     1.11400
O96         O  0.74069277  0.64133677  0.33700929    -0.96800
Zr97       Zr  0.78507960  0.66966057  0.36396906     1.88900
O98         O  0.84721064  0.75443166  0.39793839    -0.73400
O99         O  0.90133641  0.71306347  0.33585094    -0.52700
O100        O  0.81308860  0.70853082  0.33533031    -0.97400
O101        O  0.72208599  0.66593735  0.36905310    -0.54600
O102        O  0.80381505  0.73605585  0.37339854    -0.74000
C103        C  0.82729783  0.76102001  0.38557402     0.98400
O104        O  0.89463085  0.72379889  0.43497440    -0.62800
O105        O  0.74497152  0.56196826  0.43770793    -0.57600
O106        O  0.81773175  0.70170218  0.43414491    -0.94300
O107        O  0.76028133  0.64418103  0.43577342    -0.92700
O108        O  0.82735922  0.55941094  0.43598234    -0.93000
O109        O  0.89907820  0.62563247  0.43457852    -0.91800
C110        C  0.78460679  0.67876002  0.44200125     1.17200
H111        H  0.77441867  0.54014989  0.40280094     0.33200
H112        H  0.91320965  0.67801309  0.40017104     0.44000
H113        H  0.77353853  0.68100083  0.40281604     0.37600
H114        H  0.81403507  0.63485580  0.33832668     0.34000
H115        H  0.91519374  0.57874272  0.41086882     0.25800
H116        H  0.92249071  0.71148540  0.32904127     0.31800
H117        H  0.80528364  0.72881727  0.33566582     0.37700
H118        H  0.84295364  0.54632577  0.43804423     0.32100
H119        H  0.71972041  0.55782711  0.44274630     0.31000
H120        H  0.68044498  0.58123067  0.42264650     0.32700
H121        H  0.72535640  0.68098046  0.38083143     0.31700
H122        H  0.89931816  0.65026076  0.43760328     0.35700
H123        H  0.88108435  0.70349161  0.44483815     0.28400
H124        H  0.75165838  0.51309011  0.33456755     0.32600
H125        H  0.73648074  0.66246906  0.33205212     0.35500
H126        H  0.73888806  0.53593683  0.43288413     0.28100
H127        H  0.91829253  0.72209128  0.43201718     0.40900
H128        H  0.93542910  0.63602106  0.36098564     0.31000
H129        H  0.91643489  0.59173866  0.38974748     0.38600
H130        H  0.70414571  0.63835787  0.37271234     0.30500
H131        H  0.87871066  0.70108083  0.32705548     0.30500
H132        H  0.74465099  0.54806421  0.32954820     0.30800
Zr133      Zr  0.39799801  0.15720771  0.36216873     2.17500
O134        O  0.43400805  0.14825161  0.33630313    -0.51600
O135        O  0.44667884  0.22565690  0.36767719    -0.74800
O136        O  0.39018315  0.18330616  0.33220066    -0.81500
O137        O  0.43780105  0.10846008  0.39553826    -0.83300
O138        O  0.32984873  0.17733709  0.33183229    -0.78900
O139        O  0.45246630  0.14705921  0.36931771    -0.90600
O140        O  0.42853219  0.24609953  0.39381902    -0.76500
O141        O  0.36332202  0.18922794  0.37195953    -0.86000
O142        O  0.40313789  0.16127242  0.39586201    -0.85700
O143        O  0.33210984  0.11547405  0.35104571    -0.72400
O144        O  0.36959080  0.09085679  0.37324386    -0.84600
Zr145      Zr  0.27314840  0.08645752  0.40674949     2.26400
Zr146      Zr  0.29730626  0.14753174  0.36166007     2.06300
Zr147      Zr  0.37395957  0.09530645  0.40718015     2.10000
Zr148      Zr  0.36780861  0.19239017  0.40570230     1.78800
O149        O  0.37713755  0.03525763  0.40782359    -0.93400
O150        O  0.35425670  0.24596894  0.40192113    -0.41200
O151        O  0.33901069  0.12693166  0.41786263    -0.77800
O152        O  0.30144428  0.15258277  0.39555133    -0.96500
O153        O  0.26826615  0.08198518  0.37308126    -0.89800
O154        O  0.30789992  0.05450740  0.39682509    -0.92700
C155        C  0.45203190  0.25184780  0.38001452     1.01100
C156        C  0.46045130  0.12813383  0.38170444     1.14000
C157        C  0.36293877  0.18679280  0.32405305     1.04800
O158        O  0.29881705  0.21000418  0.36169524    -0.94800
O159        O  0.23258414  0.13180715  0.37303843    -0.90600
O160        O  0.21792824  0.09623944  0.40030141    -0.83700
C161        C  0.20986003  0.11374460  0.38715325     1.11400
O162        O  0.32906490  0.03574058  0.33489208    -0.96800
Zr163      Zr  0.30292283  0.05020669  0.36324117     1.88900
O164        O  0.21927211  0.02202350  0.39859735    -0.73400
O165        O  0.24962146  0.12062018  0.33590270    -0.52700
O166        O  0.25787132  0.03315950  0.33650876    -0.97400
O167        O  0.31432644  0.99546477  0.36823454    -0.54600
O168        O  0.23889868  0.99899154  0.37379443    -0.74000
C169        C  0.21364338  0.99574745  0.38622784     0.98400
O170        O  0.24978050  0.10192316  0.43574291    -0.62800
O171        O  0.41755441  0.12523715  0.43420570    -0.57600
O172        O  0.27684627  0.05049317  0.43397057    -0.94300
O173        O  0.33782435  0.05781683  0.43518378    -0.92700
O174        O  0.41349210  0.21037211  0.43216587    -0.93000
O175        O  0.34191720  0.20632980  0.43422238    -0.91800
C176        C  0.30283999  0.04431440  0.44168043     1.17200
H177        H  0.43019694  0.17635790  0.39977161     0.33200
H178        H  0.28661927  0.16433109  0.40019089     0.44000
H179        H  0.29676706  0.02863631  0.40225141     0.37600
H180        H  0.33147463  0.11337714  0.33733756     0.34000
H181        H  0.37604080  0.26843068  0.40858530     0.25800
H182        H  0.25089693  0.14365082  0.32954520     0.31800
H183        H  0.24301844  0.00416745  0.33622635     0.37700
H184        H  0.42582974  0.23919807  0.43315555     0.32100
H185        H  0.42874100  0.10805783  0.43665094     0.31000
H186        H  0.39200879  0.03728000  0.41952699     0.32700
H187        H  0.29998922  0.98257971  0.38002246     0.31700
H188        H  0.32562967  0.18048460  0.44029917     0.35700
H189        H  0.26976484  0.10686189  0.44555731     0.28400
H190        H  0.45225458  0.17486842  0.33145434     0.32600
H191        H  0.30995258  0.00826083  0.33154123     0.35500
H192        H  0.43980766  0.14974955  0.42921134     0.28100
H193        H  0.25336065  0.12823900  0.43328638     0.40900
H194        H  0.27593938  0.20537230  0.35391646     0.31000
H195        H  0.35905013  0.25301684  0.38829491     0.38600
H196        H  0.34232580  0.00781444  0.37180810     0.30500
H197        H  0.26101805  0.11022978  0.32662067     0.30500
H198        H  0.41471929  0.13511265  0.32597421     0.30800
Zr199      Zr  0.20620651  0.77994175  0.64461354     2.17500
O200        O  0.25064114  0.78310623  0.66964126    -0.51600
O201        O  0.18948547  0.71249804  0.63888873    -0.74800
O202        O  0.17395743  0.75633595  0.67494764    -0.81500
O203        O  0.29053016  0.82424468  0.60971737    -0.83300
O204        O  0.11727219  0.75812516  0.67545820    -0.78900
O205        O  0.27301134  0.79598253  0.63891803    -0.90600
O206        O  0.15390808  0.69220660  0.61162668    -0.76500
O207        O  0.13887091  0.74674670  0.63585250    -0.86000
O208        O  0.20482808  0.77331620  0.61100370    -0.85700
O209        O  0.18260952  0.82191291  0.65587730    -0.72400
O210        O  0.24277793  0.84563977  0.63260555    -0.84600
Zr211      Zr  0.14870010  0.84837421  0.60001927     2.26400
Zr212      Zr  0.11529828  0.78912896  0.64604262     2.06300
Zr213      Zr  0.24009723  0.83840574  0.59879200     2.10000
Zr214      Zr  0.13772096  0.74165415  0.60213875     1.78800
O215        O  0.30420830  0.89699707  0.59614027    -0.93400
O216        O  0.07487841  0.68427431  0.60985173    -0.41200
O217        O  0.17286642  0.80655339  0.58908035    -0.77800
O218        O  0.11210586  0.78257664  0.61213654    -0.96500
O219        O  0.15016917  0.85406566  0.63365250    -0.89800
O220        O  0.21595755  0.88032624  0.60910556    -0.92700
C221        C  0.17191140  0.68737016  0.62563816     1.01100
C222        C  0.29671842  0.80991967  0.62487942     1.14000
C223        C  0.14262159  0.75103477  0.68311683     1.04800
O224        O  0.05234931  0.72889531  0.64793229    -0.94800
O225        O  0.06533256  0.80405336  0.63636915    -0.90600
O226        O  0.08537904  0.84088794  0.60939588    -0.83700
C227        C  0.06076726  0.82353389  0.62298890     1.11400
O228        O  0.26648257  0.90597721  0.66753644    -0.96800
Zr229      Zr  0.21695940  0.88644871  0.64271285     1.88900
O230        O  0.16170680  0.91414949  0.60719456    -0.73400
O231        O  0.10188988  0.82095444  0.67233533    -0.52700
O232        O  0.19329049  0.89879120  0.67245505    -0.97400
O233        O  0.27818372  0.94571766  0.63490261    -0.54600
O234        O  0.19580372  0.93314621  0.63494246    -0.74000
C235        C  0.17728671  0.93800141  0.62116482     0.98400
O236        O  0.10601370  0.83299634  0.57241041    -0.62800
O237        O  0.25091871  0.80626977  0.57177233    -0.57600
O238        O  0.18633868  0.88176592  0.57143095    -0.94300
O239        O  0.23940968  0.87341456  0.57047088    -0.92700
O240        O  0.15899894  0.72663310  0.57241710    -0.93000
O241        O  0.08848772  0.72129867  0.57716296    -0.91800
C242        C  0.21784376  0.88627252  0.56348058     1.17200
H243        H  0.21716472  0.75861479  0.60705802     0.33200
H244        H  0.08520854  0.77073980  0.60795894     0.44000
H245        H  0.23043053  0.90585105  0.60329120     0.37600
H246        H  0.18482772  0.82458987  0.66954104     0.34000
H247        H  0.07380450  0.66287260  0.60202938     0.25800
H248        H  0.07888498  0.79959113  0.67887692     0.31800
H249        H  0.20269219  0.92724699  0.67245757     0.37700
H250        H  0.14523405  0.69766629  0.57191252     0.32100
H251        H  0.27975846  0.81939897  0.57044915     0.31000
H252        H  0.31677691  0.89178761  0.58521622     0.32700
H253        H  0.27084348  0.96072906  0.62618584     0.31700
H254        H  0.09079667  0.74600955  0.57241465     0.35700
H255        H  0.11713305  0.82296294  0.56279255     0.28400
H256        H  0.23872703  0.75641117  0.67507846     0.32600
H257        H  0.27149940  0.93189903  0.67201955     0.35500
H258        H  0.24312700  0.77948827  0.57612959     0.28100
H259        H  0.08110101  0.80956781  0.57616817     0.40900
H260        H  0.04451633  0.72128967  0.63454234     0.31000
H261        H  0.07784529  0.67737753  0.62304247     0.38600
H262        H  0.29256186  0.93657736  0.62680778     0.30500
H263        H  0.12388187  0.82869624  0.68133835     0.30500
H264        H  0.24890020  0.79953307  0.67981305     0.30800
Zr265      Zr  0.19241386  0.36804259  0.64359499     2.17500
O266        O  0.18349085  0.40596794  0.66850234    -0.51600
O267        O  0.26026992  0.41714640  0.63754804    -0.74800
O268        O  0.21912893  0.36328967  0.67397025    -0.81500
O269        O  0.14137040  0.40378397  0.60973936    -0.83300
O270        O  0.21424313  0.30354806  0.67581310    -0.78900
O271        O  0.18196690  0.42163319  0.63538614    -0.90600
O272        O  0.28055288  0.39854465  0.61141717    -0.76500
O273        O  0.22593920  0.33440542  0.63455121    -0.86000
O274        O  0.19585984  0.37090938  0.60981741    -0.85700
O275        O  0.15185942  0.30295328  0.65582772    -0.72400
O276        O  0.12585806  0.33800185  0.63254243    -0.84600
Zr277      Zr  0.12317599  0.24008494  0.60121679     2.26400
Zr278      Zr  0.18555604  0.26928211  0.64616956     2.06300
Zr279      Zr  0.12981056  0.34005418  0.59862731     2.10000
Zr280      Zr  0.22786868  0.33607630  0.60069343     1.78800
O281        O  0.06809163  0.33990251  0.59642192    -0.93400
O282        O  0.28181420  0.32324515  0.60469022    -0.41200
O283        O  0.16213492  0.30518691  0.58878474    -0.77800
O284        O  0.18975836  0.27044933  0.61214615    -0.96500
O285        O  0.11949746  0.23801897  0.63499431    -0.89800
O286        O  0.09014601  0.27454375  0.61002253    -0.92700
C287        C  0.28603969  0.42242352  0.62498893     1.01100
C288        C  0.16230276  0.42811474  0.62282781     1.14000
C289        C  0.22323747  0.33708401  0.68281394     1.04800
O290        O  0.24897570  0.27274039  0.64711163    -0.94800
O291        O  0.17238953  0.20479971  0.63672005    -0.90600
O292        O  0.13297953  0.18587824  0.61065221    -0.83700
C293        C  0.15228041  0.17995148  0.62372875     1.11400
O294        O  0.07422159  0.30629058  0.66932343    -0.96800
Zr295      Zr  0.08638465  0.27212409  0.64366580     1.88900
O296        O  0.05880152  0.18734655  0.60923448    -0.73400
O297        O  0.16090616  0.22216033  0.67218472    -0.52700
O298        O  0.06900981  0.23554813  0.67335966    -0.97400
O299        O  0.02942908  0.27896685  0.63678618    -0.54600
O300        O  0.03785258  0.20472127  0.63557207    -0.74000
C301        C  0.03403685  0.18007356  0.62260384     0.98400
O302        O  0.13592684  0.20890625  0.57433221    -0.62800
O303        O  0.15932802  0.38459452  0.57185327    -0.57600
O304        O  0.08781183  0.24141166  0.57287252    -0.94300
O305        O  0.09527546  0.30239487  0.57045716    -0.92700
O306        O  0.24850370  0.38132052  0.57395885    -0.93000
O307        O  0.23879663  0.30955951  0.57156099    -0.91800
C308        C  0.08266606  0.26736665  0.56428037     1.17200
H309        H  0.21047819  0.39768383  0.60553455     0.33200
H310        H  0.20183327  0.25564663  0.60790615     0.44000
H311        H  0.06422519  0.26250936  0.60453295     0.37600
H312        H  0.14986372  0.30326750  0.66946592     0.34000
H313        H  0.30358663  0.34411838  0.59727362     0.25800
H314        H  0.18455505  0.22345968  0.67784713     0.31800
H315        H  0.08494833  0.22253663  0.67350873     0.37700
H316        H  0.27677361  0.39049221  0.57240225     0.32100
H317        H  0.14199667  0.39569434  0.56962629     0.31000
H318        H  0.07010824  0.35408233  0.58447906     0.32700
H319        H  0.01477370  0.25945783  0.62675248     0.31700
H320        H  0.21257039  0.28793472  0.56792948     0.35700
H321        H  0.14194996  0.22709463  0.56351706     0.28400
H322        H  0.20960057  0.42240521  0.67435020     0.32600
H323        H  0.04672445  0.28882689  0.67327704     0.35500
H324        H  0.18388431  0.40684227  0.57682965     0.28100
H325        H  0.16135872  0.21065849  0.57724879     0.40900
H326        H  0.26733356  0.29922484  0.65206330     0.31000
H327        H  0.28998296  0.33004624  0.61810289     0.38600
H328        H  0.04024247  0.30464182  0.63035476     0.30500
H329        H  0.15165951  0.23382283  0.68190274     0.30500
H330        H  0.16756808  0.38669408  0.67840819     0.30800
Zr331      Zr  0.81792311  0.17982988  0.36116374     2.17500
O332        O  0.83422970  0.22735304  0.33560369    -0.51600
O333        O  0.75066317  0.16538181  0.36476630    -0.74800
O334        O  0.79211733  0.14831256  0.33071331    -0.81500
O335        O  0.86073918  0.26100657  0.39856043    -0.83300
O336        O  0.79327669  0.09125633  0.32996713    -0.78900
O337        O  0.83053010  0.24480693  0.36964571    -0.90600
O338        O  0.72589303  0.12507196  0.39030198    -0.76500
O339        O  0.78141080  0.11220581  0.36932835    -0.86000
O340        O  0.81002365  0.17742824  0.39477933    -0.85700
O341        O  0.85713370  0.15250625  0.35048159    -0.72400
O342        O  0.88298839  0.21333121  0.37419826    -0.84600
Zr343      Zr  0.87743714  0.11493742  0.40642464     2.26400
Zr344      Zr  0.82101551  0.08496404  0.35972323     2.06300
Zr345      Zr  0.87467766  0.20973414  0.40799844     2.10000
Zr346      Zr  0.77413059  0.11008747  0.40288669     1.78800
O347        O  0.93526270  0.27255499  0.40823875    -0.93400
O348        O  0.71819527  0.04618864  0.39517407    -0.41200
O349        O  0.83823240  0.14218922  0.41708857    -0.77800
O350        O  0.81219380  0.08092759  0.39350396    -0.96500
O351        O  0.88528228  0.11727340  0.37287132    -0.89800
O352        O  0.91352368  0.18223987  0.39781076    -0.92700
C353        C  0.72322396  0.14520703  0.37666552     1.01100
C354        C  0.84519003  0.26767394  0.38401327     1.14000
C355        C  0.78659687  0.11697277  0.32237970     1.04800
O356        O  0.75909374  0.02355155  0.35769786    -0.94800
O357        O  0.83568319  0.03450929  0.36961406    -0.90600
O358        O  0.86773909  0.05099223  0.39782206    -0.83700
C359        C  0.85241428  0.02773154  0.38365285     1.11400
O360        O  0.93796681  0.22820874  0.33708741    -0.96800
Zr361      Zr  0.92103834  0.18433248  0.36431673     1.88900
O362        O  0.94211348  0.12412970  0.40044445    -0.73400
O363        O  0.85015365  0.06829437  0.33338046    -0.52700
O364        O  0.93878064  0.15908728  0.33675147    -0.97400
O365        O  0.97904532  0.24735812  0.37105821    -0.54600
O366        O  0.96738217  0.16484242  0.37512333    -0.74000
C367        C  0.96927688  0.14316058  0.38820807     0.98400
O368        O  0.85907576  0.07236389  0.43420202    -0.62800
O369        O  0.84673249  0.22232630  0.43615265    -0.57600
O370        O  0.91219638  0.15077139  0.43487423    -0.94300
O371        O  0.91183120  0.20810114  0.43557168    -0.92700
O372        O  0.75338984  0.13433898  0.42973747    -0.93000
O373        O  0.75297484  0.06637956  0.43023583    -0.91800
C374        C  0.92178112  0.18400123  0.44247193     1.17200
H375        H  0.79578991  0.19029617  0.39868543     0.33200
H376        H  0.79888883  0.05386967  0.39752207     0.44000
H377        H  0.93894216  0.19513913  0.40381312     0.37600
H378        H  0.86045599  0.15493916  0.33678227     0.34000
H379        H  0.69662337  0.04394845  0.40327327     0.25800
H380        H  0.82769988  0.04809305  0.32602386     0.31800
H381        H  0.96779503  0.17346204  0.33660650     0.37700
H382        H  0.72439785  0.11981054  0.42915903     0.32100
H383        H  0.86136129  0.25116399  0.43761190     0.31000
H384        H  0.93483393  0.28473513  0.42047174     0.32700
H385        H  0.98696165  0.24520900  0.38415576     0.31700
H386        H  0.77729577  0.06804167  0.43517098     0.35700
H387        H  0.85063715  0.08498762  0.44379930     0.28400
H388        H  0.80906794  0.22043856  0.32933551     0.32600
H389        H  0.96541878  0.23617504  0.33387628     0.35500
H390        H  0.82006966  0.21608640  0.43225853     0.28100
H391        H  0.83449874  0.04846905  0.43051677     0.40900
H392        H  0.73945117  0.03133751  0.35451779     0.31000
H393        H  0.71051678  0.04910581  0.38213861     0.38600
H394        H  0.96914904  0.26595173  0.37210978     0.30500
H395        H  0.86189576  0.09171039  0.32507876     0.30500
H396        H  0.84889429  0.22107135  0.32615557     0.30800
Zr397      Zr  0.72903057  0.81795928  0.91159940     2.17500
O398        O  0.75658715  0.86104755  0.93901578    -0.51600
O399        O  0.78146626  0.80397958  0.90600123    -0.74800
O400        O  0.72657129  0.78094017  0.93978302    -0.81500
O401        O  0.76820224  0.90022215  0.87583128    -0.83300
O402        O  0.66683645  0.72569053  0.94056208    -0.78900
O403        O  0.78351935  0.88260639  0.90378874    -0.90600
O404        O  0.76441724  0.76096788  0.88153516    -0.76500
O405        O  0.69491677  0.75023080  0.90375572    -0.86000
O406        O  0.73456991  0.81412429  0.87811224    -0.85700
O407        O  0.66295752  0.79428360  0.92217435    -0.72400
O408        O  0.69961760  0.85320310  0.89819288    -0.84600
Zr409      Zr  0.60506307  0.75682413  0.86577112     2.26400
Zr410      Zr  0.62883993  0.72649564  0.91341223     2.06300
Zr411      Zr  0.70511472  0.84854625  0.86457866     2.10000
Zr412      Zr  0.70013769  0.74638954  0.87034865     1.78800
O413        O  0.70417184  0.90933401  0.85997215    -0.93400
O414        O  0.69032879  0.68245972  0.87936348    -0.41200
O415        O  0.67128813  0.78089483  0.85580067    -0.77800
O416        O  0.63322631  0.72076525  0.87968047    -0.96500
O417        O  0.59905241  0.76016826  0.89921285    -0.89800
O418        O  0.63866249  0.82451282  0.87377056    -0.92700
C419        C  0.78831198  0.78289934  0.89445946     1.01100
C420        C  0.79125842  0.90680300  0.89002164     1.14000
C421        C  0.70138445  0.74811568  0.94722796     1.04800
O422        O  0.61948454  0.66062230  0.91473696    -0.94800
O423        O  0.56143598  0.68023890  0.90522367    -0.90600
O424        O  0.54866965  0.69678560  0.87635093    -0.83700
C425        C  0.53874052  0.67459104  0.89105346     1.11400
O426        O  0.65303773  0.86939450  0.93525473    -0.96800
Zr427      Zr  0.63244177  0.82724483  0.90729116     1.88900
O428        O  0.55368251  0.77324415  0.86902384    -0.73400
O429        O  0.58929406  0.71731713  0.94161011    -0.52700
O430        O  0.58469674  0.79666119  0.93280232    -0.97400
O431        O  0.64552062  0.89361484  0.90140528    -0.54600
O432        O  0.57124884  0.81674180  0.89340486    -0.74000
C433        C  0.54794371  0.79580381  0.88004559     0.98400
O434        O  0.57551344  0.70976118  0.83980461    -0.62800
O435        O  0.75144932  0.86317796  0.83867852    -0.57600
O436        O  0.61302848  0.78776755  0.83483156    -0.94300
O437        O  0.67446380  0.84073058  0.83387216    -0.92700
O438        O  0.74168863  0.76664912  0.84225277    -0.93000
O439        O  0.67225244  0.69918685  0.84448022    -0.91800
C440        C  0.64133907  0.81698135  0.82625390     1.17200
H441        H  0.76162366  0.82617227  0.87418815     0.33200
H442        H  0.61811619  0.69359503  0.87595430     0.44000
H443        H  0.62787238  0.83842784  0.86706960     0.37600
H444        H  0.66262942  0.79696701  0.93585616     0.34000
H445        H  0.70872182  0.67868002  0.87127760     0.25800
H446        H  0.58608893  0.69313663  0.94758436     0.31800
H447        H  0.56475730  0.80450781  0.93055452     0.37700
H448        H  0.75302821  0.74919045  0.84192488     0.32100
H449        H  0.76179326  0.89125387  0.83583461     0.31000
H450        H  0.72650183  0.92513992  0.85138403     0.32700
H451        H  0.62119010  0.89333596  0.90519612     0.31700
H452        H  0.64473438  0.69317573  0.84347911     0.35700
H453        H  0.59682478  0.71706975  0.83045338     0.28400
H454        H  0.77737126  0.85620213  0.94391104     0.32600
H455        H  0.63040681  0.87256742  0.93869617     0.35500
H456        H  0.77386723  0.86208526  0.84436964     0.28100
H457        H  0.57093631  0.68442144  0.84494069     0.40900
H458        H  0.62526959  0.65529581  0.90175598     0.31000
H459        H  0.70136079  0.68613565  0.89234270     0.38600
H460        H  0.64629440  0.89621383  0.88740064     0.30500
H461        H  0.60660084  0.73857490  0.95041472     0.30500
H462        H  0.73580504  0.85007397  0.94881993     0.30800
Zr463      Zr  0.85947111  0.69569810  0.10020815     2.17500
O464        O  0.90466342  0.72125818  0.07348530    -0.51600
O465        O  0.84675880  0.74944518  0.10453812    -0.74800
O466        O  0.82280542  0.69117423  0.07152909    -0.81500
O467        O  0.94258483  0.73679043  0.13627875    -0.83300
O468        O  0.76343292  0.63545247  0.07369736    -0.78900
O469        O  0.92474002  0.74890418  0.10737469    -0.90600
O470        O  0.80974940  0.73590375  0.13128585    -0.76500
O471        O  0.79206654  0.66279735  0.10877833    -0.86000
O472        O  0.85780076  0.70298319  0.13374294    -0.85700
O473        O  0.83402711  0.62937960  0.08981369    -0.72400
O474        O  0.89469688  0.66652431  0.11384571    -0.84600
Zr475      Zr  0.79936096  0.57349779  0.14658501     2.26400
Zr476      Zr  0.76684275  0.59611946  0.09955411     2.06300
Zr477      Zr  0.89158405  0.67299640  0.14754575     2.10000
Zr478      Zr  0.79049990  0.66999683  0.14211336     1.78800
O479        O  0.95444774  0.67611769  0.15174303    -0.93400
O480        O  0.72853203  0.66462834  0.13256539    -0.41200
O481        O  0.82413154  0.63991850  0.15651021    -0.77800
O482        O  0.76349122  0.60256107  0.13325875    -0.96500
O483        O  0.80088439  0.56638534  0.11314128    -0.89800
O484        O  0.86685202  0.60650699  0.13801144    -0.92700
C485        C  0.82947534  0.75829259  0.11742114     1.01100
C486        C  0.94874352  0.75792328  0.12134944     1.14000
C487        C  0.78795869  0.66766897  0.06551240     1.04800
O488        O  0.69941541  0.57877435  0.09280930    -0.94800
O489        O  0.71671017  0.53196411  0.11087549    -0.90600
O490        O  0.73818632  0.51638813  0.13771151    -0.83700
C491        C  0.71298912  0.50848491  0.12445843     1.11400
O492        O  0.91646438  0.62767192  0.07908028    -0.96800
Zr493      Zr  0.86784266  0.59963055  0.10437750     1.88900
O494        O  0.81464708  0.52122247  0.14254788    -0.73400
O495        O  0.76767133  0.55766000  0.07268178    -0.52700
O496        O  0.84543409  0.56042047  0.07545459    -0.97400
O497        O  0.92910365  0.60203351  0.11269037    -0.54600
O498        O  0.84614414  0.53297595  0.11417764    -0.74000
C499        C  0.82907542  0.51139917  0.12865260     0.98400
O500        O  0.75367969  0.54868448  0.17325230    -0.62800
O501        O  0.90298146  0.71667822  0.17429360    -0.57600
O502        O  0.83112425  0.57991071  0.17696850    -0.94300
O503        O  0.88529601  0.64038101  0.17781665    -0.92700
O504        O  0.81170934  0.70899402  0.17108127    -0.93000
O505        O  0.74070548  0.64445582  0.16688707    -0.91800
C506        C  0.86133710  0.60719835  0.18540373     1.17200
H507        H  0.87059719  0.73020148  0.13740864     0.33200
H508        H  0.73650007  0.58817744  0.13737873     0.44000
H509        H  0.88067770  0.59526208  0.14441808     0.37600
H510        H  0.83588671  0.62858578  0.07611803     0.34000
H511        H  0.73062913  0.68972840  0.13648236     0.25800
H512        H  0.74363203  0.53186774  0.07415142     0.37800
H513        H  0.85530511  0.54179027  0.07642120     0.37700
H514        H  0.79846386  0.72472883  0.17076748     0.32100
H515        H  0.93147142  0.72941830  0.17679290     0.31000
H516        H  0.96761972  0.69558631  0.16199841     0.32700
H517        H  0.92190007  0.58073716  0.12204062     0.31700
H518        H  0.73868460  0.61934168  0.17071594     0.35700
H519        H  0.76256504  0.57126346  0.18198218     0.28400
H520        H  0.89815928  0.73935156  0.06676154     0.32600
H521        H  0.92254571  0.60700335  0.07546758     0.35500
H522        H  0.89892208  0.73779600  0.16920246     0.28100
H523        H  0.72853059  0.54485268  0.16820015     0.40900
H524        H  0.69159866  0.58904215  0.10378532     0.31000
H525        H  0.72926132  0.66568131  0.11850469     0.38600
H526        H  0.94379734  0.62642757  0.12016143     0.30500
H527        H  0.76253486  0.56949940  0.06142288     0.30500
H528        H  0.89617444  0.69869797  0.06478864     0.30800
Zr529      Zr  0.27652840  0.09220020  0.09862598     2.17500
O530        O  0.24784945  0.10843661  0.07186232    -0.51600
O531        O  0.22239212  0.02689845  0.10452511    -0.74800
O532        O  0.27757105  0.05792374  0.07005933    -0.81500
O533        O  0.24023843  0.13715484  0.13578536    -0.83300
O534        O  0.33806098  0.06437126  0.06753146    -0.78900
O535        O  0.22493276  0.10578886  0.10728148    -0.90600
O536        O  0.24102088  0.00038072  0.12813794    -0.76500
O537        O  0.31070309  0.05809183  0.10543957    -0.86000
O538        O  0.27249034  0.08268014  0.13215779    -0.85700
O539        O  0.34193299  0.13375534  0.08704470    -0.72400
O540        O  0.30614901  0.15632078  0.11244132    -0.84600
Zr541      Zr  0.40331580  0.15480596  0.14220237     2.26400
Zr542      Zr  0.37653690  0.10005407  0.09512969     2.06300
Zr543      Zr  0.30336888  0.14640974  0.14603210     2.10000
Zr544      Zr  0.30684205  0.04881257  0.13880666     1.78800
O545        O  0.30316988  0.20729545  0.15146473    -0.93400
O546        O  0.31697971  0.99505500  0.12930563    -0.41200
O547        O  0.33784980  0.11242065  0.15324792    -0.77800
O548        O  0.37351771  0.09000571  0.12885448    -0.96500
O549        O  0.40687041  0.16405949  0.10874422    -0.89800
O550        O  0.36891140  0.18876752  0.13538969    -0.92700
C551        C  0.21606203  0.99884191  0.11586223     1.01100
C552        C  0.21761500  0.12195586  0.12133656     1.14000
C553        C  0.30299095  0.05198094  0.06154144     1.04800
O554        O  0.38113532  0.04122552  0.09071259    -0.94800
O555        O  0.44184340  0.11310584  0.10360182    -0.90600
O556        O  0.45685872  0.14568915  0.13167674    -0.83700
C557        C  0.46513881  0.13061120  0.11756073     1.11400
O558        O  0.33985937  0.21234751  0.07611714    -0.96800
Zr559      Zr  0.37189629  0.19713460  0.10174597     1.88900
O560        O  0.45441435  0.22239485  0.13716248    -0.73400
O561        O  0.41922303  0.13466029  0.06846004    -0.52700
O562        O  0.41482157  0.21781492  0.07408168    -0.97400
O563        O  0.36324616  0.25295916  0.10873408    -0.54600
O564        O  0.43588020  0.24679558  0.11265460    -0.74000
C565        C  0.46043241  0.24978238  0.12545119     0.98400
O566        O  0.43903882  0.14522199  0.16800914    -0.62800
O567        O  0.26050186  0.11246443  0.17282654    -0.57600
O568        O  0.39645410  0.17450625  0.17419038    -0.94300
O569        O  0.33788592  0.17262304  0.17577353    -0.92700
O570        O  0.26854665  0.02857415  0.16797837    -0.93000
O571        O  0.33410398  0.02781580  0.16427088    -0.91800
C572        C  0.37029677  0.17867275  0.18311178     1.17200
H573        H  0.24563102  0.06795954  0.13640428     0.33200
H574        H  0.38838296  0.07754491  0.13239085     0.44000
H575        H  0.38042868  0.21355148  0.14198318     0.37600
H576        H  0.34151986  0.13665427  0.07336641     0.34000
H577        H  0.29718161  0.97210145  0.13651360     0.25800
H578        H  0.42422980  0.11500443  0.06229512     0.31800
H579        H  0.42778179  0.24676495  0.07405284     0.37700
H580        H  0.25037093  0.00012181  0.16642703     0.32100
H581        H  0.25191989  0.13064059  0.17753642     0.31000
H582        H  0.28928758  0.20328984  0.16370572     0.32700
H583        H  0.38594795  0.27561823  0.10269596     0.31700
H584        H  0.35534579  0.05250029  0.16972665     0.35700
H585        H  0.43763930  0.11984707  0.16546833     0.28400
H586        H  0.22708154  0.08297923  0.06683635     0.32600
H587        H  0.35984639  0.23804674  0.07098176     0.35500
H588        H  0.23668135  0.09032445  0.16722353     0.28100
H589        H  0.46695046  0.16534134  0.16633049     0.40900
H590        H  0.38370297  0.03314284  0.10371238     0.31000
H591        H  0.30798201  0.98944245  0.11594146     0.38600
H592        H  0.36812369  0.25761460  0.12254185     0.30500
H593        H  0.40247308  0.13883920  0.05937154     0.30500
H594        H  0.26837666  0.11883735  0.06192767     0.30800
Zr595      Zr  0.14840958  0.84229357  0.90896006     2.17500
O596        O  0.10824802  0.82596524  0.93752286    -0.51600
O597        O  0.15932061  0.90798701  0.90399652    -0.74800
O598        O  0.18788951  0.87649130  0.93634623    -0.81500
O599        O  0.06234058  0.79937745  0.87532271    -0.83300
O600        O  0.24360629  0.87276257  0.93614396    -0.78900
O601        O  0.08176842  0.82857361  0.90429890    -0.90600
O602        O  0.19524894  0.93151752  0.87695287    -0.76500
O603        O  0.21484735  0.87710223  0.89883772    -0.86000
O604        O  0.14652981  0.85010905  0.87547475    -0.85700
O605        O  0.17588381  0.80234359  0.91833986    -0.72400
O606        O  0.11173113  0.77719010  0.89638904    -0.84600
Zr607      Zr  0.20573012  0.77994455  0.86138689     2.26400
Zr608      Zr  0.24242908  0.83724749  0.90740696     2.06300
Zr609      Zr  0.11179544  0.78552212  0.86279900     2.10000
Zr610      Zr  0.21287182  0.88428449  0.86543224     1.78800
O611        O  0.05181331  0.72226546  0.86204115    -0.93400
O612        O  0.27538481  0.94239457  0.87269748    -0.41200
O613        O  0.17833807  0.81987208  0.85224740    -0.77800
O614        O  0.24208916  0.84539113  0.87368201    -0.96500
O615        O  0.20698182  0.77243351  0.89481297    -0.89800
O616        O  0.13888399  0.74519167  0.87108188    -0.92700
C617        C  0.17614733  0.93417120  0.89108949     1.01100
C618        C  0.05703037  0.81392668  0.89061862     1.14000
C619        C  0.22080190  0.88378394  0.94352947     1.04800
O620        O  0.30537597  0.89777999  0.90785842    -0.94800
O621        O  0.29223761  0.82277915  0.89572805    -0.90600
O622        O  0.26971925  0.78824716  0.86843993    -0.83700
C623        C  0.29587245  0.80458047  0.88137525     1.11400
O624        O  0.10295312  0.72431406  0.93390455    -0.96800
Zr625      Zr  0.14041335  0.73805854  0.90454655     1.88900
O626        O  0.19111538  0.71245762  0.86510806    -0.73400
O627        O  0.25972367  0.80683683  0.93286418    -0.52700
O628        O  0.16641183  0.71325785  0.92882585    -0.97400
O629        O  0.07364262  0.68424886  0.90002082    -0.54600
O630        O  0.15069206  0.68751542  0.89065475    -0.74000
C631        C  0.17011068  0.68460418  0.87672377     0.98400
O632        O  0.24730614  0.79812238  0.83315225    -0.62800
O633        O  0.08993390  0.81013364  0.83647424    -0.57600
O634        O  0.17100743  0.75447568  0.83178597    -0.94300
O635        O  0.11657976  0.76040909  0.83214927    -0.92700
O636        O  0.18654234  0.89872944  0.83718253    -0.93000
O637        O  0.25674621  0.90538989  0.83812837    -0.91800
C638        C  0.14027125  0.75157573  0.82398188     1.17200
H639        H  0.13310589  0.86413767  0.87210850     0.33200
H640        H  0.26858337  0.85800818  0.86886224     0.44000
H641        H  0.12475746  0.72013723  0.86476783     0.37600
H642        H  0.17533434  0.79998246  0.93206089     0.34000
H643        H  0.27423232  0.96410277  0.86621804     0.25800
H644        H  0.28532861  0.82789445  0.93759052     0.31800
H645        H  0.18439717  0.73659495  0.93636666     0.37700
H646        H  0.19909437  0.92763617  0.83694635     0.32100
H647        H  0.06107808  0.79697382  0.83770434     0.31000
H648        H  0.03354756  0.72665733  0.85414188     0.32700
H649        H  0.07343692  0.66123680  0.90579865     0.31700
H650        H  0.26676700  0.88685043  0.83753196     0.35700
H651        H  0.23753709  0.81146038  0.82468247     0.28400
H652        H  0.11375645  0.85137686  0.94298589     0.32600
H653        H  0.09509163  0.69699078  0.93732220     0.35500
H654        H  0.09933459  0.83791029  0.83961835     0.28100
H655        H  0.27331541  0.81953924  0.83721652     0.40900
H656        H  0.31347688  0.90313102  0.89437064     0.31000
H657        H  0.27398011  0.94726476  0.88640233     0.38600
H658        H  0.07113283  0.67882243  0.88621187     0.30500
H659        H  0.24102534  0.80255180  0.94321807     0.30500
H660        H  0.12000224  0.81551896  0.94658717     0.30800
Zr661      Zr  0.12556486  0.23957175  0.90716030     2.17500
O662        O  0.13957693  0.21368782  0.93573892    -0.51600
O663        O  0.06073025  0.18408457  0.90061347    -0.74800
O664        O  0.08886567  0.24230989  0.93407921    -0.81500
O665        O  0.17980851  0.20406059  0.87582355    -0.83300
O666        O  0.08769152  0.29914334  0.93295901    -0.78900
O667        O  0.14254578  0.18901789  0.90247362    -0.90600
O668        O  0.03889084  0.19692308  0.87311508    -0.76500
O669        O  0.09004332  0.27001924  0.89633122    -0.86000
O670        O  0.12199097  0.23213478  0.87356242    -0.85700
O671        O  0.16261454  0.30636710  0.91772594    -0.72400
O672        O  0.19220711  0.27099010  0.89637939    -0.84600
Zr673      Zr  0.18918878  0.36264440  0.86150603     2.26400
Zr674      Zr  0.12729579  0.33706175  0.90603737     2.06300
Zr675      Zr  0.18810771  0.26507705  0.86258636     2.10000
Zr676      Zr  0.08665058  0.26271030  0.86281176     1.78800
O677        O  0.25451128  0.27566062  0.86225535    -0.93400
O678        O  0.02698808  0.26587358  0.86735970    -0.41200
O679        O  0.15250371  0.29568788  0.85132234    -0.77800
O680        O  0.12234709  0.33034264  0.87216925    -0.96500
O681        O  0.19347024  0.36947060  0.89511240    -0.89800
O682        O  0.22519840  0.33227305  0.87201074    -0.92700
C683        C  0.03549769  0.17467773  0.88717272     1.01100
C684        C  0.16202448  0.18182034  0.89012071     1.14000
C685        C  0.07808749  0.26583055  0.94052573     1.04800
O686        O  0.06658138  0.33908731  0.90651511    -0.94800
O687        O  0.14045630  0.40136989  0.89493982    -0.90600
O688        O  0.17389170  0.41444375  0.86706720    -0.83700
C689        C  0.15694942  0.42296339  0.88029036     1.11400
O690        O  0.24182303  0.31149836  0.93423235    -0.96800
Zr691      Zr  0.22840560  0.33825553  0.90575364     1.88900
O692        O  0.25421055  0.41762558  0.86823001    -0.73400
O693        O  0.15383260  0.38051779  0.93337282    -0.52700
O694        O  0.24368602  0.38193170  0.93289452    -0.97400
O695        O  0.28796159  0.33456612  0.90119703    -0.54600
O696        O  0.27678068  0.40257057  0.89484345    -0.74000
C697        C  0.28000219  0.42559051  0.88124339     0.98400
O698        O  0.17705946  0.39237529  0.83379904    -0.62800
O699        O  0.16643264  0.21670298  0.83712671    -0.57600
O700        O  0.21675990  0.35469132  0.83213261    -0.94300
O701        O  0.21038019  0.29413682  0.83144093    -0.92700
O702        O  0.07571862  0.22209191  0.83487175    -0.93000
O703        O  0.06922502  0.28687651  0.83475975    -0.91800
C704        C  0.21929597  0.32713970  0.82378008     1.17200
H705        H  0.10916216  0.20489832  0.86987737     0.33200
H706        H  0.10911556  0.34343299  0.86711039     0.44000
H707        H  0.25096024  0.34479625  0.86628185     0.37600
H708        H  0.16343108  0.30716592  0.93145859     0.34000
H709        H  0.00648710  0.24291267  0.86040439     0.25800
H710        H  0.13119167  0.38172387  0.93868410     0.31800
H711        H  0.27267074  0.39728476  0.93335827     0.37700
H712        H  0.04687114  0.20658131  0.83352508     0.32100
H713        H  0.18610279  0.20806510  0.83677873     0.31000
H714        H  0.25651669  0.26432589  0.85004245     0.32700
H715        H  0.30855376  0.35732921  0.90823079     0.31700
H716        H  0.09290610  0.31230438  0.83195986     0.35700
H717        H  0.20304365  0.41052768  0.82826513     0.28400
H718        H  0.11406698  0.19156210  0.93985929     0.32600
H719        H  0.26870952  0.33102552  0.93827163     0.35500
H720        H  0.14227273  0.19372253  0.84193306     0.28100
H721        H  0.16374072  0.37112808  0.82433157     0.40900
H722        H  0.05755741  0.33473147  0.89314411     0.31000
H723        H  0.02024970  0.25943286  0.88093537     0.38600
H724        H  0.29518806  0.34110312  0.88767861     0.30500
H725        H  0.15958171  0.36558345  0.94290408     0.30500
H726        H  0.14670990  0.23405584  0.94560814     0.30800
Zr727      Zr  0.88441005  0.11691271  0.09767278     2.17500
O728        O  0.87338723  0.07620328  0.06969021    -0.51600
O729        O  0.94973877  0.12911044  0.10465140    -0.74800
O730        O  0.92104498  0.15684429  0.07072862    -0.81500
O731        O  0.83908648  0.03219034  0.13264640    -0.83300
O732        O  0.91194194  0.20949695  0.06902092    -0.78900
O733        O  0.86949278  0.05005040  0.10406521    -0.90600
O734        O  0.97417888  0.17209578  0.12919568    -0.76500
O735        O  0.91608991  0.18424499  0.10640901    -0.86000
O736        O  0.89143462  0.11856038  0.13127583    -0.85700
O737        O  0.84291963  0.14120556  0.08628033    -0.72400
O738        O  0.81912501  0.07959033  0.10979536    -0.84600
Zr739      Zr  0.81588577  0.17364022  0.14203483     2.26400
Zr740      Zr  0.87406401  0.20837083  0.09632269     2.06300
Zr741      Zr  0.82645018  0.08315411  0.14350658     2.10000
Zr742      Zr  0.92316771  0.18572612  0.13986237     1.78800
O743        O  0.76329863  0.02319077  0.14515553    -0.93400
O744        O  0.97987535  0.24946485  0.13300041    -0.41200
O745        O  0.85842239  0.15047845  0.15295762    -0.77800
O746        O  0.88181331  0.21123449  0.13013040    -0.96500
O747        O  0.80904005  0.17194822  0.10840300    -0.89800
O748        O  0.78389507  0.10640997  0.13320775    -0.92700
C749        C  0.97699678  0.15019021  0.11650354     1.01100
C750        C  0.85390038  0.02560898  0.11782160     1.14000
C751        C  0.92624795  0.18855998  0.06297526     1.04800
O752        O  0.93187663  0.27245830  0.09180458    -0.94800
O753        O  0.86068490  0.25942811  0.10714672    -0.90600
O754        O  0.82604685  0.23813238  0.13456332    -0.83700
C755        C  0.84277047  0.26374798  0.12138759     1.11400
O756        O  0.76486354  0.05747186  0.07409554    -0.96800
Zr757      Zr  0.77832853  0.10491837  0.09940610     1.88900
O758        O  0.74757100  0.15477000  0.13619067    -0.73400
O759        O  0.83970920  0.21752648  0.06978328    -0.52700
O760        O  0.76077261  0.12640789  0.07042695    -0.97400
O761        O  0.71932395  0.04249960  0.10599890    -0.54600
O762        O  0.72927259  0.12136956  0.10823734    -0.74000
C763        C  0.72337922  0.13802439  0.12242771     0.98400
O764        O  0.82272053  0.21923361  0.16718942    -0.62800
O765        O  0.85441641  0.06562915  0.17011602    -0.57600
O766        O  0.79529618  0.14232754  0.17307698    -0.94300
O767        O  0.80015835  0.08735178  0.17370621    -0.92700
O768        O  0.93821128  0.16214769  0.16884932    -0.93000
O769        O  0.94171488  0.23273275  0.16573998    -0.91800
C770        C  0.79207806  0.11188386  0.18143247     1.17200
H771        H  0.90620039  0.10636795  0.13539102     0.33200
H772        H  0.89367101  0.23805114  0.13447136     0.44000
H773        H  0.75869496  0.09207154  0.13933265     0.37600
H774        H  0.84130843  0.13954652  0.07255470     0.34000
H775        H  0.00122595  0.25055907  0.14088534     0.25800
H776        H  0.85950006  0.24236939  0.06382538     0.31800
H777        H  0.73203053  0.10928389  0.06925817     0.37700
H778        H  0.96718080  0.17662537  0.16956906     0.32100
H779        H  0.83766524  0.03689002  0.17143785     0.31000
H780        H  0.75719866  0.01420667  0.13180697     0.32700
H781        H  0.69889632  0.04239589  0.09774413     0.31700
H782        H  0.91678280  0.22533748  0.17234091     0.35700
H783        H  0.79692395  0.20767044  0.17356612     0.28400
H784        H  0.89973256  0.08449004  0.06446858     0.32600
H785        H  0.73885270  0.05052684  0.06885094     0.35500
H786        H  0.87982017  0.06953227  0.16545363     0.28100
H787        H  0.84060919  0.21789653  0.17666845     0.40900
H788        H  0.94342581  0.28038636  0.10465765     0.31000
H789        H  0.98722747  0.24741996  0.11977440     0.38600
H790        H  0.71125440  0.04482604  0.11902137     0.30500
H791        H  0.83579648  0.19706583  0.06046521     0.30500
H792        H  0.86094089  0.08524297  0.06027277     0.30800
C793        C  0.05394507  0.25434624  0.95816656    -0.12200
C794        C  0.03594357  0.21580090  0.96575173     0.03300
C795        C  0.01701133  0.20777632  0.98333006    -0.12700
C796        C  0.01387167  0.23671068  0.99331306     0.18100
C797        C  0.02939657  0.27430646  0.98539713    -0.09800
C798        C  0.04958811  0.28299139  0.96811478    -0.02700
H799        H  0.00367753  0.17836390  0.98906906     0.04700
C800        C  0.99206162  0.22603911  0.01139758     0.20100
H801        H  0.06219191  0.31248163  0.96257630     0.09800
C802        C  0.01004735  0.22294856  0.02805092    -0.16100
C803        C  0.98895659  0.21048159  0.04509669     0.02800
C804        C  0.94960820  0.20156341  0.04554022    -0.11400
C805        C  0.93184437  0.20485099  0.02894655    -0.01500
C806        C  0.95256256  0.21640564  0.01188976    -0.06600
H807        H  0.04033722  0.22986761  0.02772033     0.05800
H808        H  0.90140334  0.19746227  0.02917004     0.09200
Br809      Br  0.02355948  0.31454371  0.99768262    -0.06300
Br810      Br  0.03297840  0.17146915  0.95276545    -0.03300
Br811      Br  0.01496455  0.20680284  0.06746421    -0.00400
Br812      Br  0.92519977  0.21686448  0.98943857    -0.04800
C813        C  0.16812775  0.64641401  0.87422200    -0.12200
C814        C  0.13186896  0.61117989  0.87462632     0.03300
C815        C  0.13080967  0.57519306  0.87485648    -0.12700
C816        C  0.16550597  0.57357190  0.87439783     0.18100
C817        C  0.20164427  0.60854193  0.87256344    -0.09800
C818        C  0.20281432  0.64471792  0.87261241    -0.02700
H819        H  0.10280427  0.54833906  0.87558917     0.04700
C820        C  0.16326014  0.53508456  0.87606467     0.20100
H821        H  0.23087147  0.67151938  0.87191880     0.09800
C822        C  0.15156678  0.51005577  0.86031747    -0.16100
C823        C  0.14895456  0.47335270  0.86143832     0.02800
C824        C  0.15739268  0.46074135  0.87871735    -0.11400
C825        C  0.16813760  0.48558324  0.89462471    -0.01500
C826        C  0.17150448  0.52264098  0.89334959    -0.06600
H827        H  0.14463792  0.51923998  0.84705516     0.05800
H828        H  0.17494391  0.47656255  0.90796473     0.09200
Br829      Br  0.24974543  0.60781929  0.86986261    -0.06300
Br830      Br  0.08292204  0.61060819  0.87385708    -0.03300
Br831      Br  0.13198586  0.44122661  0.83910252    -0.00400
Br832      Br  0.18747812  0.55543502  0.91550751    -0.04800
C833        C  0.16439106  0.14555871  0.89248872    -0.12200
C834        C  0.13425451  0.11132837  0.90129368     0.03300
C835        C  0.13748245  0.07758047  0.90248646    -0.12700
C836        C  0.17003234  0.07693774  0.89497986     0.18100
C837        C  0.20024103  0.11087933  0.88649175    -0.09800
C838        C  0.19733604  0.14476495  0.88533238    -0.02700
H839        H  0.11387565  0.05125372  0.90878009     0.04700
C840        C  0.17049886  0.03973179  0.89462020     0.20100
H841        H  0.22092676  0.17056140  0.87867669     0.09800
C842        C  0.15782023  0.01676834  0.87812324    -0.16100
C843        C  0.15878499  0.98187989  0.87691154     0.02800
C844        C  0.17290693  0.96968565  0.89234977    -0.11400
C845        C  0.18450877  0.99205473  0.90906766    -0.01500
C846        C  0.18347679  0.02697850  0.91027527    -0.06600
H847        H  0.14711223  0.02606090  0.86615652     0.05800
H848        H  0.19514194  0.98274580  0.92105840     0.09200
Br849      Br  0.24570868  0.11189566  0.87606145    -0.06300
Br850      Br  0.08627041  0.10688917  0.91052636    -0.03300
Br851      Br  0.13841210  0.95080331  0.85433431    -0.00400
Br852      Br  0.20081129  0.05663661  0.93335416    -0.04800
C853        C  0.29040716  0.02794182  0.04399383    -0.12200
C854        C  0.31585492  0.03552469  0.02840137     0.03300
C855        C  0.30301292  0.01083079  0.01254632    -0.12700
C856        C  0.26509431  0.97847665  0.01179573     0.18100
C857        C  0.23958625  0.97075528  0.02724025    -0.09800
C858        C  0.25219570  0.99558178  0.04307771    -0.02700
H859        H  0.32264412  0.01708500  0.00061584     0.04700
C860        C  0.25289221  0.95354111  0.99462654     0.20100
H861        H  0.23233561  0.98894853  0.05494312     0.09800
C862        C  0.26558954  0.92636463  0.99206284    -0.16100
C863        C  0.25556458  0.90311607  0.97565836     0.02800
C864        C  0.23294313  0.90746983  0.96125665    -0.11400
C865        C  0.22044163  0.93492611  0.96398610    -0.01500
C866        C  0.23015881  0.95774637  0.98042863    -0.06600
H867        H  0.28302417  0.92293088  0.00300169     0.05800
H868        H  0.20320902  0.93900739  0.95316676     0.09200
Br869      Br  0.18787986  0.92593304  0.02758462    -0.06300
Br870      Br  0.36763362  0.08009856  0.02718621    -0.03300
Br871      Br  0.27128527  0.86430584  0.97462521    -0.00400
Br872      Br  0.21239664  0.99488062  0.98263782    -0.04800
C873        C  0.01296105  0.14692305  0.11592712    -0.12200
C874        C  0.05052661  0.17797302  0.12094448     0.03300
C875        C  0.08281829  0.17221360  0.12063647    -0.12700
C876        C  0.07864734  0.13599147  0.11550600     0.18100
C877        C  0.04144429  0.10500156  0.11054574    -0.09800
C878        C  0.00915767  0.11070899  0.11064997    -0.02700
H879        H  0.11143991  0.19610901  0.12457907     0.04700
C880        C  0.11312528  0.13065420  0.11670021     0.20100
H881        H  0.98065200  0.08622553  0.10710792     0.09800
C882        C  0.12695946  0.12809986  0.13467858    -0.16100
C883        C  0.16044983  0.12466606  0.13665237     0.02800
C884        C  0.18106122  0.12405895  0.12031081    -0.11400
C885        C  0.16656182  0.12599527  0.10228928    -0.01500
C886        C  0.13305369  0.12937635  0.10038875    -0.06600
H887        H  0.11147393  0.12870899  0.14727931     0.05800
H888        H  0.18183212  0.12573401  0.08954262     0.09200
Br889      Br  0.03303989  0.05391510  0.10445626    -0.06300
Br890      Br  0.06062700  0.22922619  0.12787540    -0.03300
Br891      Br  0.17477401  0.11904814  0.16203684    -0.00400
Br892      Br  0.11659181  0.13351791  0.07525201    -0.04800
C893        C  0.50390195  0.13305008  0.11768948    -0.12200
C894        C  0.53732562  0.16531622  0.12584359     0.03300
C895        C  0.57286940  0.16562374  0.12652131    -0.12700
C896        C  0.57603786  0.13445523  0.11913932     0.18100
C897        C  0.54333487  0.10262351  0.11068986    -0.09800
C898        C  0.50756921  0.10209579  0.10996825    -0.02700
H899        H  0.59833985  0.19048129  0.13272319     0.04700
C900        C  0.61407818  0.13613794  0.12008799     0.20100
H901        H  0.48242877  0.07711469  0.10365159     0.09800
C902        C  0.62292962  0.12046106  0.13593338    -0.16100
C903        C  0.65869980  0.12120853  0.13709079     0.02800
C904        C  0.68630306  0.13839052  0.12237369    -0.11400
C905        C  0.67724602  0.15398058  0.10648701    -0.01500
C906        C  0.64142894  0.15309695  0.10531070    -0.06600
H907        H  0.60160818  0.10691046  0.14721721     0.05800
H908        H  0.69807186  0.16676476  0.09494628     0.09200
Br909      Br  0.54667510  0.05958814  0.10000640    -0.06300
Br910      Br  0.53759591  0.21101849  0.13543113    -0.03300
Br911      Br  0.66667602  0.09495075  0.15798783    -0.00400
Br912      Br  0.63056002  0.17486085  0.08329718    -0.04800
C913        C  0.98672076  0.79463657  0.11971759    -0.12200
C914        C  0.00390749  0.82058548  0.13516224     0.03300
C915        C  0.04073135  0.85407446  0.13305423    -0.12700
C916        C  0.06089995  0.86235167  0.11575253     0.18100
C917        C  0.04358451  0.83697448  0.10022718    -0.09800
C918        C  0.00669311  0.80354489  0.10226497    -0.02700
H919        H  0.05381934  0.87375818  0.14499757     0.04700
C920        C  0.10049396  0.89700419  0.11451777     0.20100
H921        H  0.99391921  0.78396474  0.09025917     0.09800
C922        C  0.13296157  0.89283207  0.11871064    -0.16100
C923        C  0.17083685  0.92532805  0.11898528     0.02800
C924        C  0.17671961  0.96308632  0.11507995    -0.11400
C925        C  0.14392247  0.96691187  0.11052323    -0.01500
C926        C  0.10609103  0.93427089  0.11022497    -0.06600
H927        H  0.12873802  0.86407805  0.12190390     0.05800
H928        H  0.14758695  0.99550556  0.10748381     0.09200
Br929      Br  0.06932538  0.84669524  0.07608105    -0.06300
Br930      Br  0.97793568  0.81310300  0.15912555    -0.03300
Br931      Br  0.21307406  0.91555355  0.12397675    -0.00400
Br932      Br  0.06279762  0.94164180  0.10389821    -0.04800
C933        C  0.49832404  0.28725297  0.12609918    -0.12200
C934        C  0.52257196  0.30092331  0.14243734     0.03300
C935        C  0.55665574  0.33764236  0.14209954    -0.12700
C936        C  0.56825251  0.36057308  0.12557667     0.18100
C937        C  0.54587995  0.34572526  0.10890703    -0.09800
C938        C  0.51091205  0.31001831  0.10941967    -0.02700
H939        H  0.57448260  0.34831285  0.15481309     0.04700
C940        C  0.60493429  0.39878030  0.12579017     0.20100
H941        H  0.49402921  0.29950977  0.09642741     0.09800
C942        C  0.64004244  0.39998395  0.13060255    -0.16100
C943        C  0.67553520  0.43533626  0.13069363     0.02800
C944        C  0.67641336  0.47027155  0.12515678    -0.11400
C945        C  0.64103603  0.46904832  0.12076587    -0.01500
C946        C  0.60537564  0.43396208  0.12166817    -0.06600
H947        H  0.63981212  0.37317065  0.13429135     0.05800
H948        H  0.64096111  0.49581059  0.11731879     0.09200
Br949      Br  0.56316130  0.37121095  0.08469738    -0.06300
Br950      Br  0.51190048  0.27183687  0.16571019    -0.03300
Br951      Br  0.72128483  0.43313336  0.13813928    -0.00400
Br952      Br  0.55803073  0.43617961  0.11884988    -0.04800
C953        C  0.83403122  0.79768559  0.11680133    -0.12200
C954        C  0.85246067  0.82422184  0.13185806     0.03300
C955        C  0.85648401  0.86147863  0.13114736    -0.12700
C956        C  0.84199865  0.87279791  0.11565934     0.18100
C957        C  0.82408652  0.84653369  0.10043952    -0.09800
C958        C  0.82044468  0.80929875  0.10103824    -0.02700
H959        H  0.87068825  0.88165331  0.14281071     0.04700
C960        C  0.84485364  0.91166499  0.11599806     0.20100
H961        H  0.80633197  0.78912257  0.08936705     0.09800
C962        C  0.87075841  0.94119971  0.10368436    -0.16100
C963        C  0.87446447  0.97846548  0.10386003     0.02800
C964        C  0.85178497  0.98676812  0.11669852    -0.11400
C965        C  0.82591016  0.95671823  0.12905234    -0.01500
C966        C  0.82245482  0.91967977  0.12880848    -0.06600
H967        H  0.88842482  0.93523700  0.09394248     0.05800
H968        H  0.80786235  0.96176856  0.13895558     0.09200
Br969      Br  0.80290357  0.85978532  0.07898373    -0.06300
Br970      Br  0.87396675  0.81147739  0.15337425    -0.03300
Br971      Br  0.91199859  0.01609668  0.08649267    -0.00400
Br972      Br  0.78609622  0.88049879  0.14598132    -0.04800
C973        C  0.82627539  0.47273428  0.12910452    -0.12200
C974        C  0.81182517  0.44730263  0.11331889     0.03300
C975        C  0.81314845  0.41255630  0.11327848    -0.12700
C976        C  0.82882811  0.40262451  0.12874008     0.18100
C977        C  0.84248575  0.42749394  0.14469582    -0.09800
C978        C  0.84070330  0.46210452  0.14488060    -0.02700
H979        H  0.80241239  0.39342154  0.10100861     0.04700
C980        C  0.83258437  0.36729676  0.12734578     0.20100
H981        H  0.85213654  0.48154795  0.15701223     0.09800
C982        C  0.86463512  0.36964226  0.11758449    -0.16100
C983        C  0.86872928  0.33658959  0.11525004     0.02800
C984        C  0.84019639  0.30008009  0.12289102    -0.11400
C985        C  0.80795843  0.29809401  0.13259237    -0.01500
C986        C  0.80388680  0.33114025  0.13472945    -0.06600
H987        H  0.88663463  0.39746732  0.11172953     0.05800
H988        H  0.78535533  0.27049724  0.13836017     0.09200
Br989      Br  0.86575780  0.41644025  0.16599730    -0.06300
Br990      Br  0.78889365  0.45795587  0.09167494    -0.03300
Br991      Br  0.91479840  0.34449214  0.10214568    -0.00400
Br992      Br  0.75819612  0.32530693  0.14740317    -0.04800
C993        C  0.49837499  0.64027403  0.89129399    -0.12200
C994        C  0.48519253  0.61001957  0.90507019     0.03300
C995        C  0.44757799  0.57753899  0.90357196    -0.12700
C996        C  0.42336573  0.57303173  0.88803414     0.18100
C997        C  0.43573730  0.60346113  0.87467727    -0.09800
C998        C  0.47248884  0.63684447  0.87658798    -0.02700
H999        H  0.43791110  0.55442684  0.91407535     0.04700
C1000       C  0.38670391  0.53532090  0.88536170     0.20100
H1001       H  0.48130940  0.65953210  0.86592339     0.09800
C1002       C  0.35079208  0.53458667  0.88394257    -0.16100
C1003       C  0.31581836  0.49930190  0.88121192     0.02800
C1004       C  0.31627938  0.46378987  0.88092765    -0.11400
C1005       C  0.35214044  0.46452770  0.88234220    -0.01500
C1006       C  0.38726053  0.49988625  0.88409568    -0.06600
H1007       H  0.34996658  0.56159026  0.88496939     0.05800
H1008       H  0.35280937  0.43737716  0.88197205     0.09200
Br1009     Br  0.40532740  0.59969393  0.85259021    -0.06300
Br1010     Br  0.51703596  0.60813804  0.92533905    -0.03300
Br1011     Br  0.26832373  0.50127434  0.87883928    -0.00400
Br1012     Br  0.43512245  0.49805813  0.88387840    -0.04800
C1013       C  0.00030805  0.13530090  0.88776451    -0.12200
C1014       C  0.99037802  0.10895268  0.87243182     0.03300
C1015       C  0.95694227  0.07178285  0.87347448    -0.12700
C1016       C  0.93230536  0.06044460  0.88942779     0.18100
C1017       C  0.94194514  0.08701363  0.90464543    -0.09800
C1018       C  0.97600804  0.12384281  0.90382796    -0.02700
H1019       H  0.94994656  0.05163587  0.86170363     0.04700
C1020       C  0.89649079  0.02111433  0.88968828     0.20100
H1021       H  0.98292734  0.14407941  0.91553971     0.09800
C1022       C  0.89312083  0.99281442  0.90285798    -0.16100
C1023       C  0.85977062  0.95525083  0.90328472     0.02800
C1024       C  0.82858569  0.94541762  0.89028225    -0.11400
C1025       C  0.83282707  0.97395593  0.87692428    -0.01500
C1026       C  0.86605255  0.01115465  0.87653778    -0.06600
H1027       H  0.91677100  0.99996173  0.91280680     0.05800
H1028       H  0.80984340  0.96773911  0.86672214     0.09200
Br1029     Br  0.90827772  0.07548182  0.92624698    -0.06300
Br1030     Br  0.02212356  0.12161996  0.85000812    -0.03300
Br1031     Br  0.86006228  0.91938409  0.92170632    -0.00400
Br1032     Br  0.86742897  0.04771296  0.85809796    -0.04800
C1033       C  0.51144991  0.79707135  0.87757356    -0.12200
C1034       C  0.51179939  0.83272606  0.87527681     0.03300
C1035       C  0.47647191  0.83306733  0.87473247    -0.12700
C1036       C  0.44041209  0.79833355  0.87687671     0.18100
C1037       C  0.44008016  0.76240087  0.87831142    -0.09800
C1038       C  0.47544708  0.76206333  0.87857187    -0.02700
H1039       H  0.47715093  0.86071334  0.87299849     0.04700
C1040       C  0.40379931  0.80041999  0.87792236     0.20100
H1041       H  0.47487208  0.73444467  0.88027513     0.09800
C1042       C  0.37438559  0.78091177  0.86429949    -0.16100
C1043       C  0.33905794  0.78132909  0.86506845     0.02800
C1044       C  0.33277516  0.80262564  0.87964835    -0.11400
C1045       C  0.36293065  0.82279076  0.89305457    -0.01500
C1046       C  0.39792542  0.82178142  0.89233078    -0.06600
H1047       H  0.37884337  0.76485259  0.85301063     0.05800
H1048       H  0.35936791  0.83938360  0.90436049     0.09200
Br1049     Br  0.39256504  0.71306934  0.88093836    -0.06300
Br1050     Br  0.55968833  0.88158135  0.87245856    -0.03300
Br1051     Br  0.30128295  0.75094354  0.84579375    -0.00400
Br1052     Br  0.43612893  0.84902360  0.91187551    -0.04800
C1053       C  0.82740983  0.78618489  0.89562998    -0.12200
C1054       C  0.83424637  0.75538959  0.89051637     0.03300
C1055       C  0.87239792  0.76141738  0.89099695    -0.12700
C1056       C  0.90400564  0.79758930  0.89655037     0.18100
C1057       C  0.89732553  0.82804393  0.90188906    -0.09800
C1058       C  0.85934605  0.82216293  0.90147337    -0.02700
H1059       H  0.87752406  0.73784509  0.88691638     0.04700
C1060       C  0.94400662  0.80361108  0.89583799     0.20100
H1061       H  0.85496751  0.84628238  0.90530269     0.09800
C1062       C  0.96738080  0.82236594  0.87997963    -0.16100
C1063       C  0.00488462  0.82721607  0.87836483     0.02800
C1064       C  0.01933596  0.81285732  0.89272509    -0.11400
C1065       C  0.99653104  0.79557779  0.90899633    -0.01500
C1066       C  0.95895026  0.79073301  0.91058910    -0.06600
H1067       H  0.95629658  0.83312806  0.86879203     0.05800
H1068       H  0.00751901  0.78481386  0.92022577     0.09200
Br1069     Br  0.93936654  0.87826072  0.90959761    -0.06300
Br1070     Br  0.79312955  0.70403582  0.88359328    -0.03300
Br1071     Br  0.03588921  0.85543406  0.85680103    -0.00400
Br1072     Br  0.92886975  0.76620973  0.93297805    -0.04800
C1073       C  0.77482371  0.67879721  0.04814194    -0.12200
C1074       C  0.79650224  0.68827425  0.03109534     0.03300
C1075       C  0.78343821  0.69954269  0.01507386    -0.12700
C1076       C  0.74885086  0.70140795  0.01569822     0.18100
C1077       C  0.72670824  0.69110813  0.03256099    -0.09800
C1078       C  0.73978989  0.67994402  0.04861465    -0.02700
H1079       H  0.80017934  0.70664577  0.00201588     0.04700
C1080       C  0.73615056  0.71354258  0.99847556     0.20100
H1081       H  0.72273076  0.67247798  0.06158165     0.09800
C1082       C  0.71330896  0.68529713  0.98489811    -0.16100
C1083       C  0.70189799  0.69589688  0.96809300     0.02800
C1084       C  0.71304576  0.73550995  0.96474365    -0.11400
C1085       C  0.73649043  0.76380032  0.97831595    -0.01500
C1086       C  0.74808336  0.75309883  0.99503804    -0.06600
H1087       H  0.70489906  0.65492439  0.98725361     0.05800
H1088       H  0.74571471  0.79436913  0.97595737     0.09200
Br1089     Br  0.67835561  0.69153702  0.03424300    -0.06300
Br1090     Br  0.84252862  0.68371280  0.02850083    -0.03300
Br1091     Br  0.67410984  0.65536718  0.94966366    -0.00400
Br1092     Br  0.78072460  0.79341858  0.01268433    -0.04800
C1093       C  0.78111606  0.10583307  0.20175078    -0.12200
C1094       C  0.75673917  0.11843662  0.21017148     0.03300
C1095       C  0.75151746  0.11611845  0.22985529    -0.12700
C1096       C  0.77123425  0.10268255  0.24144343     0.18100
C1097       C  0.79475078  0.08921210  0.23312422    -0.09800
C1098       C  0.79873304  0.08997953  0.21342617    -0.02700
H1099       H  0.73340091  0.12652812  0.23626440     0.04700
C1100       C  0.77012008  0.10646277  0.26218795     0.20100
H1101       H  0.81799429  0.08063325  0.20735198     0.09800
C1102       C  0.75115186  0.07274625  0.27344638    -0.16100
C1103       C  0.75394922  0.07535462  0.29326117     0.02800
C1104       C  0.77577849  0.11238216  0.30204351    -0.11400
C1105       C  0.79251298  0.14620410  0.29064034    -0.01500
C1106       C  0.79016372  0.14347733  0.27087661    -0.06600
H1107       H  0.73525277  0.04423219  0.26675163     0.05800
H1108       H  0.80976182  0.17487043  0.29702891     0.09200
Br1109     Br  0.82591374  0.07418632  0.24807258    -0.06300
Br1110     Br  0.73026761  0.13975815  0.19597630    -0.03300
Br1111     Br  0.72758905  0.02736989  0.30737466    -0.00400
Br1112     Br  0.81805001  0.19084851  0.25632860    -0.04800
C1113       C  0.23007746  0.33259272  0.80344842    -0.12200
C1114       C  0.25674970  0.36955704  0.79565199     0.03300
C1115       C  0.26160676  0.37393787  0.77591200    -0.12700
C1116       C  0.23980509  0.34214064  0.76373986     0.18100
C1117       C  0.21387299  0.30516141  0.77152138    -0.09800
C1118       C  0.20950798  0.30058350  0.79118438    -0.02700
H1119       H  0.28179322  0.40241201  0.77000236     0.04700
C1120       C  0.24273445  0.34778869  0.74293491     0.20100
H1121       H  0.18833843  0.27220191  0.79685128     0.09800
C1122       C  0.25866425  0.32939911  0.73201858    -0.16100
C1123       C  0.25501817  0.32754262  0.71221294     0.02800
C1124       C  0.23539358  0.34471936  0.70301308    -0.11400
C1125       C  0.22252418  0.36602127  0.71395263    -0.01500
C1126       C  0.22576174  0.36740234  0.73374202    -0.06600
H1127       H  0.27233716  0.31479378  0.73903390     0.05800
H1128       H  0.20740404  0.37947543  0.70724724     0.09200
Br1129     Br  0.18157345  0.26055945  0.75584865    -0.06300
Br1130     Br  0.28733680  0.41498700  0.81114471    -0.03300
Br1131     Br  0.27714200  0.30089368  0.69871494    -0.00400
Br1132     Br  0.20298301  0.39302186  0.74762549    -0.04800
C1133       C  0.94595393  0.19560700  0.46032067    -0.12200
C1134       C  0.96649206  0.17665496  0.46683056     0.03300
C1135       C  0.98882939  0.18930976  0.48357321    -0.12700
C1136       C  0.99140460  0.22046204  0.49432714     0.18100
C1137       C  0.97143352  0.23957251  0.48788926    -0.09800
C1138       C  0.94906509  0.22713866  0.47116748    -0.02700
H1139       H  0.00443670  0.17466920  0.48827561     0.04700
C1140       C  0.01475586  0.23226998  0.51226189     0.20100
H1141       H  0.93373680  0.24222473  0.46675199     0.09800
C1142       C  0.04862170  0.26929613  0.51360353    -0.16100
C1143       C  0.07113479  0.28123907  0.53031408     0.02800
C1144       C  0.06007270  0.25582164  0.54615674    -0.11400
C1145       C  0.02654300  0.21851586  0.54464827    -0.01500
C1146       C  0.00392466  0.20674669  0.52798461    -0.06600
H1147       H  0.05774787  0.28892738  0.50151311     0.05800
H1148       H  0.01743129  0.19861825  0.55663463     0.09200
Br1149     Br  0.97274210  0.28209799  0.50177638    -0.06300
Br1150     Br  0.96699056  0.13406092  0.45372430    -0.03300
Br1151     Br  0.11804205  0.33155784  0.53017889    -0.00400
Br1152     Br  0.95755489  0.15603633  0.52763647    -0.04800
C1153       C  0.13806439  0.74015331  0.70335197    -0.12200
C1154       C  0.10128253  0.71654934  0.71198213     0.03300
C1155       C  0.09884131  0.71257517  0.73178148    -0.12700
C1156       C  0.13256694  0.73218298  0.74309424     0.18100
C1157       C  0.16940234  0.75428621  0.73440452    -0.09800
C1158       C  0.17188105  0.75778911  0.71471991    -0.02700
H1159       H  0.07047890  0.69508656  0.73842639     0.04700
C1160       C  0.12897506  0.73175837  0.76391768     0.20100
H1161       H  0.20033842  0.77638796  0.70836866     0.09800
C1162       C  0.14546894  0.71403575  0.77492830    -0.16100
C1163       C  0.14841323  0.71869840  0.79465798     0.02800
C1164       C  0.13315380  0.74029167  0.80371767    -0.11400
C1165       C  0.11437758  0.75577916  0.79262779    -0.01500
C1166       C  0.11296669  0.75242973  0.77290163    -0.06600
H1167       H  0.15794312  0.69821066  0.76801200     0.05800
H1168       H  0.10316145  0.77309429  0.79915634     0.09200
Br1169     Br  0.21694002  0.78329935  0.74874145    -0.06300
Br1170     Br  0.05382540  0.68890287  0.69751304    -0.03300
Br1171     Br  0.17492160  0.69603577  0.80799162    -0.00400
Br1172     Br  0.09317911  0.78068234  0.75886482    -0.04800
C1173       C  0.17248165  0.65031397  0.62640789    -0.12200
C1174       C  0.18377319  0.63670811  0.61044548     0.03300
C1175       C  0.18142646  0.60022011  0.61101907    -0.12700
C1176       C  0.16818687  0.57692846  0.62735271     0.18100
C1177       C  0.15839080  0.59098978  0.64361143    -0.09800
C1178       C  0.16064056  0.62760425  0.64306545    -0.02700
H1179       H  0.18995449  0.58988939  0.59864403     0.04700
C1180       C  0.16578857  0.53843552  0.62703995     0.20100
H1181       H  0.15237256  0.63798782  0.65550654     0.09800
C1182       C  0.20044879  0.53694703  0.62839294    -0.16100
C1183       C  0.19993097  0.50139836  0.62669553     0.02800
C1184       C  0.16405941  0.46638662  0.62369705    -0.11400
C1185       C  0.12939520  0.46807804  0.62203219    -0.01500
C1186       C  0.13005433  0.50380104  0.62373852    -0.06600
H1187       H  0.22814617  0.56373602  0.63039970     0.05800
H1188       H  0.10170135  0.44151235  0.61964792     0.09200
Br1189     Br  0.14211761  0.56115002  0.66670553    -0.06300
Br1190     Br  0.20468167  0.66764961  0.58788100    -0.03300
Br1191     Br  0.24956274  0.50315232  0.62694567    -0.00400
Br1192     Br  0.08180045  0.50429780  0.62117915    -0.04800
C1193       C  0.15293314  0.14267054  0.62368409    -0.12200
C1194       C  0.11993243  0.10631283  0.61880486     0.03300
C1195       C  0.12259227  0.07213696  0.61913248    -0.12700
C1196       C  0.15766315  0.07351812  0.62424225     0.18100
C1197       C  0.19052626  0.10959563  0.62901583    -0.09800
C1198       C  0.18793056  0.14365864  0.62884740    -0.02700
H1199       H  0.09724141  0.04436871  0.61535951     0.04700
C1200       C  0.16049528  0.03759677  0.62353458     0.20100
H1201       H  0.21369734  0.17122374  0.63247323     0.09800
C1202       C  0.17261321  0.02833081  0.60658484    -0.16100
C1203       C  0.17891101  0.99647991  0.60565259     0.02800
C1204       C  0.17249000  0.97285930  0.62179139    -0.11400
C1205       C  0.16034204  0.98223029  0.63880572    -0.01500
C1206       C  0.15437037  0.01436400  0.63977349    -0.06600
H1207       H  0.17835226  0.04672338  0.59418289     0.05800
H1208       H  0.15519567  0.96432054  0.65134018     0.09200
Br1209     Br  0.23977719  0.11364055  0.63544372    -0.06300
Br1210     Br  0.07004025  0.10091941  0.61250352    -0.03300
Br1211     Br  0.19991436  0.98895471  0.58258299    -0.00400
Br1212     Br  0.13877140  0.02599645  0.66358144    -0.04800
C1213       C  0.37682829  0.18997474  0.20344091    -0.12200
C1214       C  0.39049889  0.17214306  0.21644635     0.03300
C1215       C  0.39114298  0.17962934  0.23589028    -0.12700
C1216       C  0.37789690  0.20425228  0.24285645     0.18100
C1217       C  0.36589436  0.22348712  0.22992089    -0.09800
C1218       C  0.36525766  0.21610594  0.21041161    -0.02700
H1219       H  0.40018046  0.16452024  0.24576370     0.04700
C1220       C  0.37411320  0.20641043  0.26368941     0.20100
H1221       H  0.35486705  0.23021743  0.20066168     0.09800
C1222       C  0.40793102  0.22291271  0.27502957    -0.16100
C1223       C  0.40538974  0.21932523  0.29487089     0.02800
C1224       C  0.36819295  0.19865213  0.30372293    -0.11400
C1225       C  0.33446884  0.18404812  0.29227567    -0.01500
C1226       C  0.33712337  0.18722728  0.27250786    -0.06600
H1227       H  0.43651141  0.23750594  0.26833982     0.05800
H1228       H  0.30562710  0.16756898  0.29857986     0.09200
Br1229     Br  0.34961792  0.25951726  0.23819332    -0.06300
Br1230     Br  0.40398189  0.13349506  0.20914824    -0.03300
Br1231     Br  0.45389585  0.24314826  0.30876202    -0.00400
Br1232     Br  0.28923019  0.16067254  0.25825025    -0.04800
C1233       C  0.23105706  0.90890332  0.54533997    -0.12200
C1234       C  0.25292428  0.90194859  0.53142342     0.03300
C1235       C  0.26627207  0.92537116  0.51508446    -0.12700
C1236       C  0.25869502  0.95612078  0.51221661     0.18100
C1237       C  0.23705166  0.96321459  0.52594263    -0.09800
C1238       C  0.22300120  0.93939997  0.54211845    -0.02700
H1239       H  0.28223657  0.91921829  0.50438863     0.04700
C1240       C  0.27095952  0.97852759  0.49417244     0.20100
H1241       H  0.20619940  0.94519029  0.55237785     0.09800
C1242       C  0.24262219  0.97036360  0.48017670    -0.16100
C1243       C  0.25249565  0.99056431  0.46288129     0.02800
C1244       C  0.29163584  0.02030588  0.45936041    -0.11400
C1245       C  0.32024647  0.02770576  0.47329729    -0.01500
C1246       C  0.31017549  0.00707212  0.49056559    -0.06600
H1247       H  0.21254987  0.94778217  0.48269185     0.05800
H1248       H  0.35042041  0.05017545  0.47094631     0.09200
Br1249     Br  0.22720937  0.00601510  0.52343177    -0.06300
Br1250     Br  0.26371461  0.85962627  0.53295476    -0.03300
Br1251     Br  0.21120667  0.97405368  0.44440214    -0.00400
Br1252     Br  0.35046985  0.01952855  0.50910416    -0.04800
C1253       C  0.00451264  0.13861678  0.38884298    -0.12200
C1254       C  0.04140694  0.16763172  0.38185779     0.03300
C1255       C  0.07288104  0.16058710  0.38155950    -0.12700
C1256       C  0.06876716  0.12523289  0.38830366     0.18100
C1257       C  0.03255633  0.09694839  0.39600395    -0.09800
C1258       C  0.00088028  0.10366790  0.39608372    -0.02700
H1259       H  0.10099999  0.18309531  0.37622342     0.04700
C1260       C  0.10312760  0.11935234  0.38785491     0.20100
H1261       H  0.97303940  0.08105002  0.40156094     0.09800
C1262       C  0.11933284  0.11604126  0.40500174    -0.16100
C1263       C  0.15298734  0.11255569  0.40526803     0.02800
C1264       C  0.17199889  0.11354383  0.38800469    -0.11400
C1265       C  0.15510708  0.11615705  0.37083369    -0.01500
C1266       C  0.12097885  0.11872916  0.37063209    -0.06600
H1267       H  0.10594973  0.11673369  0.41833563     0.05800
H1268       H  0.16848145  0.11613142  0.35738968     0.09200
Br1269     Br  0.02442009  0.04823538  0.40616424    -0.06300
Br1270     Br  0.05187010  0.21843878  0.37359227    -0.03300
Br1271     Br  0.17148330  0.10848617  0.42988760    -0.00400
Br1272     Br  0.09947089  0.12029298  0.34639388    -0.04800
C1273       C  0.49895245  0.13026397  0.37986889    -0.12200
C1274       C  0.50431905  0.09798513  0.38355320     0.03300
C1275       C  0.54149748  0.10203540  0.38155883    -0.12700
C1276       C  0.57357872  0.13767472  0.37580144     0.18100
C1277       C  0.56827003  0.16953273  0.37164100    -0.09800
C1278       C  0.53124258  0.16567789  0.37372850    -0.02700
H1279       H  0.54553331  0.07733606  0.38464486     0.04700
C1280       C  0.61282844  0.14180362  0.37559784     0.20100
H1281       H  0.52780333  0.19072563  0.37081626     0.09800
C1282       C  0.62933902  0.13904857  0.35841845    -0.16100
C1283       C  0.66602658  0.14135543  0.35817581     0.02800
C1284       C  0.68623710  0.14596809  0.37543522    -0.11400
C1285       C  0.66983214  0.14963925  0.39247900    -0.01500
C1286       C  0.63354883  0.14769490  0.39265736    -0.06600
H1287       H  0.61337257  0.13452424  0.34524272     0.05800
H1288       H  0.68524970  0.15377216  0.40580394     0.09200
Br1289     Br  0.61104168  0.21902307  0.36359709    -0.06300
Br1290     Br  0.46217594  0.04711609  0.39028036    -0.03300
Br1291     Br  0.68570963  0.13562206  0.33415977    -0.00400
Br1292     Br  0.61311003  0.15283934  0.41656602    -0.04800
C1293       C  0.85664463  0.58921958  0.30595173    -0.12200
C1294       C  0.89391782  0.60239737  0.29778472     0.03300
C1295       C  0.89751855  0.60095083  0.27804002    -0.12700
C1296       C  0.86447719  0.58659453  0.26622217     0.18100
C1297       C  0.82706068  0.57068373  0.27447963    -0.09800
C1298       C  0.82341147  0.57180479  0.29416237    -0.02700
H1299       H  0.92634919  0.61252309  0.27180699     0.04700
C1300       C  0.86947485  0.59214132  0.24541716     0.20100
H1301       H  0.79452095  0.56144154  0.30010774     0.09800
C1302       C  0.85504809  0.55948419  0.23338364    -0.16100
C1303       C  0.85408497  0.56367211  0.21364664     0.02800
C1304       C  0.86757911  0.60124218  0.20566776    -0.11400
C1305       C  0.88436502  0.63404632  0.21776267    -0.01500
C1306       C  0.88538463  0.62977819  0.23742832    -0.06600
H1307       H  0.84343674  0.53049589  0.23943522     0.05800
H1308       H  0.89498657  0.66314529  0.21203112     0.09200
Br1309     Br  0.78026155  0.55098024  0.25945552    -0.06300
Br1310     Br  0.94073899  0.62225534  0.31278321    -0.03300
Br1311     Br  0.83471800  0.51705561  0.19850886    -0.00400
Br1312     Br  0.90594013  0.67609998  0.25286570    -0.04800
C1313       C  0.85339401  0.99028336  0.38321350    -0.12200
C1314       C  0.87273664  0.97970666  0.39709275     0.03300
C1315       C  0.87101454  0.94340940  0.39591804    -0.12700
C1316       C  0.85039459  0.91696735  0.38128774     0.18100
C1317       C  0.83204369  0.92756143  0.36724624    -0.09800
C1318       C  0.83371800  0.96373806  0.36825860    -0.02700
H1319       H  0.88493342  0.93519963  0.40686362     0.04700
C1320       C  0.84513823  0.87713741  0.38199178     0.20100
H1321       H  0.81888534  0.97069633  0.35727996     0.09800
C1322       C  0.80740707  0.84532051  0.38520684    -0.16100
C1323       C  0.80105727  0.80724214  0.38661704     0.02800
C1324       C  0.83282826  0.80063396  0.38492060    -0.11400
C1325       C  0.87067449  0.83239723  0.38209666    -0.01500
C1326       C  0.87703281  0.87048594  0.38051321    -0.06600
H1327       H  0.78285804  0.85024531  0.38684821     0.05800
H1328       H  0.89525744  0.82742831  0.38073508     0.09200
Br1329     Br  0.80441507  0.89365503  0.34629905    -0.06300
Br1330     Br  0.90130967  0.01171320  0.41844065    -0.03300
Br1331     Br  0.74907571  0.76559271  0.39206874    -0.00400
Br1332     Br  0.92944796  0.91193151  0.37565726    -0.04800
C1333       C  0.82376540  0.47407196  0.38289943    -0.12200
C1334       C  0.79406402  0.43890249  0.37466147     0.03300
C1335       C  0.79734834  0.40505555  0.37514537    -0.12700
C1336       C  0.82987441  0.40554510  0.38356446     0.18100
C1337       C  0.85967337  0.44050997  0.39147275    -0.09800
C1338       C  0.85644431  0.47419405  0.39113530    -0.02700
H1339       H  0.77438432  0.37815918  0.36895362     0.04700
C1340       C  0.83299064  0.36970874  0.38364144     0.20100
H1341       H  0.87984228  0.50074010  0.39737814     0.09800
C1342       C  0.85873868  0.36678442  0.37086820    -0.16100
C1343       C  0.86351226  0.33391245  0.37095039     0.02800
C1344       C  0.84252763  0.30353363  0.38405513    -0.11400
C1345       C  0.81700354  0.30653880  0.39691610    -0.01500
C1346       C  0.81189234  0.33920406  0.39670937    -0.06600
H1347       H  0.87534513  0.39030220  0.36089873     0.05800
H1348       H  0.80055302  0.28310052  0.40695350     0.09200
Br1349     Br  0.90498303  0.44336241  0.40327749    -0.06300
Br1350     Br  0.74756540  0.43425414  0.36330508    -0.03300
Br1351     Br  0.90005374  0.33237681  0.35348483    -0.00400
Br1352     Br  0.77623279  0.34104298  0.41464655    -0.04800
C1353       C  0.98334918  0.79167189  0.38476853    -0.12200
C1354       C  0.99855853  0.81738230  0.40059264     0.03300
C1355       C  0.03595051  0.85051264  0.39966076    -0.12700
C1356       C  0.05913459  0.85901888  0.38335983     0.18100
C1357       C  0.04447814  0.83385730  0.36761643    -0.09800
C1358       C  0.00694748  0.80085947  0.36834342    -0.02700
H1359       H  0.04733208  0.86969926  0.41189290     0.04700
C1360       C  0.09870552  0.89409947  0.38332225     0.20100
H1361       H  0.99637041  0.78221384  0.35591281     0.09800
C1362       C  0.13182981  0.88958300  0.38324135    -0.16100
C1363       C  0.16960210  0.92223811  0.38384880     0.02800
C1364       C  0.17457578  0.96014226  0.38563706    -0.11400
C1365       C  0.14130317  0.96453007  0.38567722    -0.01500
C1366       C  0.10368490  0.93199082  0.38399703    -0.06600
H1367       H  0.12824270  0.86050777  0.38255282     0.05800
H1368       H  0.14467214  0.99353623  0.38624645     0.09200
Br1369     Br  0.07457528  0.84362535  0.34476875    -0.06300
Br1370     Br  0.97169828  0.80956160  0.42434709    -0.03300
Br1371     Br  0.21296701  0.91305174  0.38232247    -0.00400
Br1372     Br  0.06011250  0.94061455  0.38111949    -0.04800
C1373       C  0.65835604  0.47945704  0.38382225    -0.12200
C1374       C  0.63480383  0.46858038  0.36733877     0.03300
C1375       C  0.60117959  0.43163924  0.36625529    -0.12700
C1376       C  0.59070385  0.40517902  0.38136921     0.18100
C1377       C  0.61389803  0.41612073  0.39791899    -0.09800
C1378       C  0.64730807  0.45320071  0.39910138    -0.02700
H1379       H  0.58303698  0.42354180  0.35362103     0.04700
C1380       C  0.55477213  0.36672301  0.37989317     0.20100
H1381       H  0.66546507  0.46105294  0.41172605     0.09800
C1382       C  0.55547889  0.33632010  0.36995894    -0.16100
C1383       C  0.52220142  0.29895006  0.36909982     0.02800
C1384       C  0.48740575  0.29150397  0.37861937    -0.11400
C1385       C  0.48678664  0.32290351  0.38790408    -0.01500
C1386       C  0.51990848  0.36018313  0.38845504    -0.06600
H1387       H  0.58227459  0.34159183  0.36307029     0.05800
H1388       H  0.46041202  0.31853529  0.39489163     0.09200
Br1389     Br  0.60167958  0.38088096  0.41894118    -0.06300
Br1390     Br  0.64632070  0.50351021  0.34624920    -0.03300
Br1391     Br  0.52754233  0.25996826  0.35519086    -0.00400
Br1392     Br  0.51652312  0.40162742  0.40101132    -0.04800
C1393       C  0.63137373  0.82563051  0.70488998    -0.12200
C1394       C  0.65137295  0.86135424  0.71506616     0.03300
C1395       C  0.64896371  0.86130788  0.73493113    -0.12700
C1396       C  0.62710742  0.82629750  0.74504700     0.18100
C1397       C  0.60542354  0.79106431  0.73496184    -0.09800
C1398       C  0.60745488  0.79099852  0.71512304    -0.02700
H1399       H  0.66545817  0.88861140  0.74261830     0.04700
C1400       C  0.63095323  0.82645219  0.76598309     0.20100
H1401       H  0.59188014  0.76317937  0.70779273     0.09800
C1402       C  0.59911764  0.81876706  0.77778818    -0.16100
C1403       C  0.60201304  0.81677022  0.79761011     0.02800
C1404       C  0.63713395  0.82227347  0.80577261    -0.11400
C1405       C  0.66917208  0.83118666  0.79392513    -0.01500
C1406       C  0.66634485  0.83324336  0.77426016    -0.06600
H1407       H  0.57198192  0.81415743  0.77155463     0.05800
H1408       H  0.69631723  0.83533083  0.79994903     0.09200
Br1409     Br  0.57554981  0.74171279  0.74767876    -0.06300
Br1410     Br  0.68232682  0.91132670  0.70300411    -0.03300
Br1411     Br  0.55822951  0.80853513  0.81294290    -0.00400
Br1412     Br  0.71121584  0.84345815  0.75928693    -0.04800
C1413       C  0.32432324  0.45906768  0.62551914    -0.12200
C1414       C  0.34349618  0.47722629  0.64265070     0.03300
C1415       C  0.37954687  0.51222517  0.64207478    -0.12700
C1416       C  0.39685111  0.52973094  0.62466432     0.18100
C1417       C  0.37772954  0.51151965  0.60761379    -0.09800
C1418       C  0.34202162  0.47650713  0.60815929    -0.02700
H1419       H  0.39435843  0.52570288  0.65526501     0.04700
C1420       C  0.43525678  0.56637517  0.62447272     0.20100
H1421       H  0.32759512  0.46322489  0.59486431     0.09800
C1422       C  0.46800600  0.56582187  0.61704690    -0.16100
C1423       C  0.50466738  0.59997042  0.61620944     0.02800
C1424       C  0.50906973  0.63572130  0.62296593    -0.11400
C1425       C  0.47625079  0.63591591  0.63073657    -0.01500
C1426       C  0.43964768  0.60177402  0.63148932    -0.06600
H1427       H  0.46499023  0.53853763  0.61190539     0.05800
H1428       H  0.47884005  0.66298635  0.63593891     0.09200
Br1429     Br  0.39816291  0.53401799  0.58316795    -0.06300
Br1430     Br  0.32328694  0.45457279  0.66713252    -0.03300
Br1431     Br  0.54758856  0.59496658  0.60668949    -0.00400
Br1432     Br  0.39625714  0.60542030  0.64146619    -0.04800
C1433       C  0.99903577  0.14030594  0.62278798    -0.12200
C1434       C  0.98073118  0.12048067  0.63979648     0.03300
C1435       C  0.94827005  0.08263834  0.63900962    -0.12700
C1436       C  0.93407836  0.06355785  0.62158409     0.18100
C1437       C  0.95289763  0.08260651  0.60467453    -0.09800
C1438       C  0.98490629  0.12063442  0.60536613    -0.02700
H1439       H  0.93401689  0.06788979  0.65208634     0.04700
C1440       C  0.89773163  0.02518884  0.62132862     0.20100
H1441       H  0.99869677  0.13496815  0.59214248     0.09800
C1442       C  0.86195633  0.02432243  0.62343657    -0.16100
C1443       C  0.82667288  0.98880842  0.62380835     0.02800
C1444       C  0.82685882  0.95332704  0.62181349    -0.11400
C1445       C  0.86268766  0.95417901  0.61948180    -0.01500
C1446       C  0.89810173  0.98980003  0.61949355    -0.06600
H1447       H  0.86153827  0.05149016  0.62483502     0.05800
H1448       H  0.86315819  0.92703147  0.61809207     0.09200
Br1449     Br  0.93549162  0.05823520  0.58029398    -0.06300
Br1450     Br  0.99982033  0.14181468  0.66457850    -0.03300
Br1451     Br  0.77905752  0.99061149  0.62629241    -0.00400
Br1452     Br  0.94614084  0.98871736  0.61766371    -0.04800
C1453       C  0.33357282  0.80907876  0.62639896    -0.12200
C1454       C  0.34490372  0.79143647  0.61226813     0.03300
C1455       C  0.37985853  0.79070157  0.61426793    -0.12700
C1456       C  0.40367246  0.80689956  0.63034774     0.18100
C1457       C  0.39212987  0.82413224  0.64459666    -0.09800
C1458       C  0.35707467  0.82474138  0.64263654    -0.02700
H1459       H  0.38838988  0.77714604  0.60330361     0.04700
C1460       C  0.44079505  0.80619234  0.63169823     0.20100
H1461       H  0.34831099  0.83783352  0.65373697     0.09800
C1462       C  0.47626509  0.84098345  0.62888392    -0.16100
C1463       C  0.51182750  0.84109844  0.62856490     0.02800
C1464       C  0.51236347  0.80573343  0.63111076    -0.11400
C1465       C  0.47677780  0.77113278  0.63467792    -0.01500
C1466       C  0.44118478  0.77111172  0.63484053    -0.06600
H1467       H  0.47619134  0.86814429  0.62661252     0.05800
H1468       H  0.47644722  0.74371301  0.63668624     0.09200
Br1469     Br  0.42301273  0.84666938  0.66702794    -0.06300
Br1470     Br  0.31210162  0.76509516  0.59082744    -0.03300
Br1471     Br  0.55845549  0.89084839  0.62514578    -0.00400
Br1472     Br  0.39374411  0.72255073  0.63929139    -0.04800
C1473       C  0.83771413  0.81221667  0.62242741    -0.12200
C1474       C  0.85984807  0.81668621  0.60583911     0.03300
C1475       C  0.89778022  0.82257420  0.60732482    -0.12700
C1476       C  0.91457291  0.82425697  0.62505776     0.18100
C1477       C  0.89339644  0.82119877  0.64167803    -0.09800
C1478       C  0.85521101  0.81501321  0.64028112    -0.02700
H1479       H  0.91384357  0.82445073  0.59450081     0.04700
C1480       C  0.95238644  0.82495795  0.62562236     0.20100
H1481       H  0.83915637  0.81237430  0.65321073     0.09800
C1482       C  0.98716593  0.85941362  0.62104278    -0.16100
C1483       C  0.02286595  0.85971806  0.62002729     0.02800
C1484       C  0.02392155  0.82494415  0.62339187    -0.11400
C1485       C  0.98895823  0.79062107  0.62811772    -0.01500
C1486       C  0.95341922  0.79037141  0.62911011    -0.06600
H1487       H  0.98650192  0.88611999  0.61827656     0.05800
H1488       H  0.98916426  0.76363787  0.63076380     0.09200
Br1489     Br  0.91546236  0.82476271  0.66644102    -0.06300
Br1490     Br  0.83957681  0.81216004  0.58060799    -0.03300
Br1491     Br  0.06936402  0.90880436  0.61523482    -0.00400
Br1492     Br  0.90654187  0.74173502  0.63440548    -0.04800
C1493       C  0.77377734  0.69250551  0.45960825    -0.12200
C1494       C  0.79333272  0.73230241  0.46556044     0.03300
C1495       C  0.78299874  0.74275428  0.48274312    -0.12700
C1496       C  0.75247336  0.71483244  0.49397197     0.18100
C1497       C  0.73187579  0.67569089  0.48779355    -0.09800
C1498       C  0.74290359  0.66477239  0.47099077    -0.02700
H1499       H  0.79818307  0.77316874  0.48714275     0.04700
C1500       C  0.74118201  0.72747392  0.51154914     0.20100
H1501       H  0.72701940  0.63423585  0.46685256     0.09800
C1502       C  0.70575582  0.72779479  0.51194815    -0.16100
C1503       C  0.69374788  0.73904643  0.52833679     0.02800
C1504       C  0.71758980  0.75064622  0.54474156    -0.11400
C1505       C  0.75349287  0.75112578  0.54414605    -0.01500
C1506       C  0.76527926  0.73946389  0.52780426    -0.06600
H1507       H  0.68733229  0.71920993  0.49940446     0.05800
H1508       H  0.77186588  0.75938737  0.55666327     0.09200
Br1509     Br  0.68839250  0.63604524  0.50186188    -0.06300
Br1510     Br  0.83219022  0.77486851  0.45062130    -0.03300
Br1511     Br  0.64555583  0.73990192  0.52707695    -0.00400
Br1512     Br  0.81335498  0.73824974  0.52867736    -0.04800
loop_ 
_geom_bond_atom_site_label_1 
_geom_bond_atom_site_label_2 
_geom_bond_distance 
_geom_bond_site_symmetry_2 
_ccdc_geom_bond_type 
Zr1           O2   2.441       .  S
Zr1           O3   2.447       .  S
Zr1           O4   2.441       .  S
Zr1           O7   2.420       .  S
Zr1           O9   2.380       .  S
Zr1          O10   2.384       .  S
Zr1          O11   2.405       .  S
Zr1          O12   2.408       .  S
O2           H58   0.990       .  S
O2           H66   0.991       .  S
O3           C23   1.287       .  A
O4           C25   1.286       .  A
O5          Zr15   2.442       .  S
O5           C24   1.286       .  A
O6          Zr14   2.437       .  S
O6           C25   1.284       .  A
O7           C24   1.284       .  A
O8          Zr16   2.426       .  S
O8           C23   1.282       .  A
O9          Zr14   2.391       .  S
O9          Zr16   2.383       .  S
O10         Zr15   2.394       .  S
O10         Zr16   2.371       .  S
O10          H45   0.965       .  S
O11         Zr14   2.401       .  S
O11         Zr31   2.391       .  S
O11          H48   0.966       .  S
O12         Zr15   2.393       .  S
O12         Zr31   2.401       .  S
Zr13         O38   2.440       .  S
Zr13         O32   2.430       .  S
Zr13         O40   2.436       .  S
Zr13         O28   2.422       .  S
Zr13         O19   2.401       .  S
Zr13         O20   2.405       .  S
Zr13         O21   2.375       .  S
Zr13         O22   2.378       .  S
Zr14         O33   2.437       .  S
Zr14         O26   2.435       .  S
Zr14         O27   2.433       .  S
Zr14         O20   2.396       .  S
Zr14         O21   2.387       .  S
Zr15         O17   2.432       .  S
Zr15         O39   2.437       .  S
Zr15         O41   2.445       .  S
Zr15         O19   2.389       .  S
Zr15         O22   2.392       .  S
Zr16         O42   2.436       .  S
Zr16         O43   2.436       .  S
Zr16         O18   2.436       .  S
Zr16         O19   2.398       .  S
Zr16         O20   2.394       .  S
O17          H54   0.990       .  S
O18          H49   0.990       .  S
O18          H63   0.989       .  S
O20          H46   0.966       .  S
O21         Zr31   2.368       .  S
O22         Zr31   2.374       .  S
O22          H47   0.965       .  S
C23        C1464   1.486       .  S
C24        C1424   1.484       .  S
C25        C1393   1.490       .  S
O26          H62   0.990       .  S
O27          C29   1.285       .  A
O28          C29   1.283       .  A
C29        C1444   1.471       .  S
O30         Zr31   2.439       .  S
O30          H59   0.990       .  S
Zr31         O34   2.437       .  S
Zr31         O35   2.440       .  S
Zr31         O36   2.435       .  S
O32          C37   1.284       .  A
O33          H50   0.990       .  S
O33          H65   0.990       .  S
O34          H51   0.990       .  S
O35          H55   0.990       .  S
O35          H64   0.990       .  S
O36          C37   1.285       .  A
C37        C1473   1.487       .  S
O38          H57   0.990       .  S
O38          H61   0.990       .  S
O39          H53   0.990       .  S
O39          H60   0.990       .  S
O40          C44   1.286       .  A
O41          C44   1.287       .  A
O42          H52   0.990       .  S
O43          H56   0.990       .  S
C44        C1504   1.484       .  S
Zr67         O68   2.442       .  S
Zr67         O69   2.440       .  S
Zr67         O70   2.433       .  S
Zr67         O73   2.417       .  S
Zr67         O75   2.379       .  S
Zr67         O76   2.383       .  S
Zr67         O77   2.405       .  S
Zr67         O78   2.407       .  S
O68         H124   0.990       .  S
O68         H132   0.991       .  S
O69          C89   1.284       .  A
O70          C91   1.284       .  A
O71         Zr81   2.441       .  S
O71          C90   1.286       .  A
O72         Zr80   2.429       .  S
O72          C91   1.283       .  A
O73          C90   1.281       .  A
O74         Zr82   2.414       .  S
O74          C89   1.281       .  A
O75         Zr80   2.395       .  S
O75         Zr82   2.380       .  S
O76         Zr81   2.396       .  S
O76         Zr82   2.373       .  S
O76         H111   0.965       .  S
O77         Zr80   2.401       .  S
O77         Zr97   2.390       .  S
O77         H114   0.969       .  S
O78         Zr81   2.396       .  S
O78         Zr97   2.395       .  S
Zr79        O104   2.440       .  S
Zr79         O98   2.415       .  S
Zr79        O106   2.432       .  S
Zr79         O94   2.442       .  S
Zr79         O85   2.400       .  S
Zr79         O86   2.399       .  S
Zr79         O87   2.375       .  S
Zr79         O88   2.387       .  S
Zr80         O99   2.436       .  S
Zr80         O92   2.433       .  S
Zr80         O93   2.432       .  S
Zr80         O86   2.396       .  S
Zr80         O87   2.381       .  S
Zr81         O83   2.436       .  S
Zr81        O105   2.436       .  S
Zr81        O107   2.450       .  S
Zr81         O85   2.393       .  S
Zr81         O88   2.389       .  S
Zr82        O108   2.434       .  S
Zr82        O109   2.434       .  S
Zr82         O84   2.436       .  S
Zr82         O85   2.395       .  S
Zr82         O86   2.394       .  S
O83         H120   0.990       .  S
O84         H115   0.990       .  S
O84         H129   0.990       .  S
O86         H112   0.966       .  S
O87         Zr97   2.372       .  S
O88         Zr97   2.370       .  S
O88         H113   0.966       .  S
C89        C1333   1.488       .  S
C90        C1373   1.471       .  S
C91        C1293   1.480       .  S
O92         H128   0.990       .  S
O93          C95   1.286       .  A
O94          C95   1.286       .  A
C95        C1353   1.497       .  S
O96         Zr97   2.439       .  S
O96         H125   0.990       .  S
Zr97        O100   2.437       .  S
Zr97        O101   2.439       .  S
Zr97        O102   2.430       .  S
O98         C103   1.281       .  A
O99         H116   0.990       .  S
O99         H131   0.990       .  S
O100        H117   0.990       .  S
O101        H121   0.989       .  S
O101        H130   0.990       .  S
O102        C103   1.284       .  A
C103       C1324   1.465       .  S
O104        H123   0.990       .  S
O104        H127   0.990       .  S
O105        H119   0.990       .  S
O105        H126   0.990       .  S
O106        C110   1.284       .  A
O107        C110   1.290       .  A
O108        H118   0.990       .  S
O109        H122   0.989       .  S
C110       C1493   1.498       .  S
Zr133       O134   2.440       .  S
Zr133       O135   2.437       .  S
Zr133       O136   2.431       .  S
Zr133       O139   2.423       .  S
Zr133       O141   2.379       .  S
Zr133       O142   2.378       .  S
Zr133       O143   2.406       .  S
Zr133       O144   2.403       .  S
O134        H190   0.990       .  S
O134        H198   0.990       .  S
O135        C155   1.283       .  A
O136        C157   1.283       .  A
O137       Zr147   2.443       .  S
O137        C156   1.286       .  A
O138       Zr146   2.435       .  S
O138        C157   1.286       .  A
O139        C156   1.284       .  A
O140       Zr148   2.418       .  S
O140        C155   1.282       .  A
O141       Zr146   2.391       .  S
O141       Zr148   2.379       .  S
O142       Zr147   2.394       .  S
O142       Zr148   2.372       .  S
O142        H177   0.965       .  S
O143       Zr146   2.402       .  S
O143       Zr163   2.392       .  S
O143        H180   0.967       .  S
O144       Zr147   2.394       .  S
O144       Zr163   2.399       .  S
Zr145       O170   2.439       .  S
Zr145       O164   2.429       .  S
Zr145       O172   2.429       .  S
Zr145       O160   2.434       .  S
Zr145       O151   2.398       .  S
Zr145       O152   2.399       .  S
Zr145       O153   2.376       .  S
Zr145       O154   2.382       .  S
Zr146       O165   2.438       .  S
Zr146       O158   2.433       .  S
Zr146       O159   2.440       .  S
Zr146       O152   2.392       .  S
Zr146       O153   2.383       .  S
Zr147       O149   2.432       .  S
Zr147       O171   2.435       .  S
Zr147       O173   2.448       .  S
Zr147       O151   2.394       .  S
Zr147       O154   2.389       .  S
Zr148       O174   2.435       .  S
Zr148       O175   2.436       .  S
Zr148       O150   2.437       .  S
Zr148       O151   2.398       .  S
Zr148       O152   2.389       .  S
O149        H186   0.990       .  S
O150        H181   0.990       .  S
O150        H195   0.990       .  S
O152        H178   0.966       .  S
O153       Zr163   2.371       .  S
O154       Zr163   2.370       .  S
O154        H179   0.965       .  S
C155       C1384   1.490       .  S
C156       C1273   1.482       .  S
C157       C1224   1.487       .  S
O158        H194   0.990       .  S
O159        C161   1.288       .  A
O160        C161   1.285       .  A
C161       C1264   1.489       .  S
O162       Zr163   2.441       .  S
O162        H191   0.990       .  S
Zr163       O166   2.438       .  S
Zr163       O167   2.439   1_545  S
Zr163       O168   2.430   1_545  S
O164        C169   1.285   1_545  A
O165        H182   0.990       .  S
O165        H197   0.990       .  S
O166        H183   0.990       .  S
O167        H187   0.989       .  S
O167        H196   0.990   1_565  S
O168        C169   1.283       .  A
C169       C1364   1.477       .  S
O170        H189   0.990       .  S
O170        H193   0.990       .  S
O171        H185   0.990       .  S
O171        H192   0.990       .  S
O172        C176   1.285       .  A
O173        C176   1.289       .  A
O174        H184   0.990       .  S
O175        H188   0.990       .  S
C176       C1244   1.490       .  S
Zr199       O200   2.441       .  S
Zr199       O201   2.432       .  S
Zr199       O202   2.420       .  S
Zr199       O205   2.414       .  S
Zr199       O207   2.379       .  S
Zr199       O208   2.377       .  S
Zr199       O209   2.402       .  S
Zr199       O210   2.402       .  S
O200        H256   0.990       .  S
O200        H264   0.990       .  S
O201        C221   1.282       .  A
O202        C223   1.281       .  A
O203       Zr213   2.440       .  S
O203        C222   1.286       .  A
O204       Zr212   2.424       .  S
O204        C223   1.282       .  A
O205        C222   1.280       .  A
O206       Zr214   2.427       .  S
O206        C221   1.282       .  A
O207       Zr212   2.391       .  S
O207       Zr214   2.379       .  S
O208       Zr213   2.386       .  S
O208       Zr214   2.374       .  S
O208        H243   0.965       .  S
O209       Zr212   2.399       .  S
O209       Zr229   2.392       .  S
O209        H246   0.966       .  S
O210       Zr213   2.392       .  S
O210       Zr229   2.401       .  S
Zr211       O236   2.438       .  S
Zr211       O230   2.432       .  S
Zr211       O238   2.456       .  S
Zr211       O226   2.452       .  S
Zr211       O217   2.405       .  S
Zr211       O218   2.408       .  S
Zr211       O219   2.375       .  S
Zr211       O220   2.383       .  S
Zr212       O231   2.437       .  S
Zr212       O224   2.434       .  S
Zr212       O225   2.416       .  S
Zr212       O218   2.396       .  S
Zr212       O219   2.385       .  S
Zr213       O215   2.434       .  S
Zr213       O237   2.438       .  S
Zr213       O239   2.431       .  S
Zr213       O217   2.395       .  S
Zr213       O220   2.394       .  S
Zr214       O240   2.435       .  S
Zr214       O241   2.436       .  S
Zr214       O216   2.439       .  S
Zr214       O217   2.402       .  S
Zr214       O218   2.396       .  S
O215        H252   0.990       .  S
O216        H247   0.990       .  S
O216        H261   0.990       .  S
O218        H244   0.966       .  S
O219       Zr229   2.367       .  S
O220       Zr229   2.375       .  S
O220        H245   0.965       .  S
C221       C1173   1.473       .  S
C222       C1453   1.473       .  S
C223       C1153   1.472       .  S
O224        H260   0.990       .  S
O225        C227   1.283       .  A
O226        C227   1.289       .  A
C227       C1484   1.480       .  S
O228       Zr229   2.438       .  S
O228        H257   0.990       .  S
Zr229       O232   2.438       .  S
Zr229       O233   2.439       .  S
Zr229       O234   2.431       .  S
O230        C235   1.285       .  A
O231        H248   0.990       .  S
O231        H263   0.990       .  S
O232        H249   0.990       .  S
O233        H253   0.990       .  S
O233        H262   0.990       .  S
O234        C235   1.283       .  A
C235       C1204   1.478       .  S
O236        H255   0.990       .  S
O236        H259   0.990       .  S
O237        H251   0.990       .  S
O237        H258   0.989       .  S
O238        C242   1.291       .  A
O239        C242   1.284       .  A
O240        H250   0.990       .  S
O241        H254   0.990       .  S
C242       C1233   1.494       .  S
Zr265       O266   2.441       .  S
Zr265       O267   2.431       .  S
Zr265       O268   2.430       .  S
Zr265       O271   2.415       .  S
Zr265       O273   2.379       .  S
Zr265       O274   2.380       .  S
Zr265       O275   2.405       .  S
Zr265       O276   2.404       .  S
O266        H322   0.990       .  S
O266        H330   0.990       .  S
O267        C287   1.283       .  A
O268        C289   1.283       .  A
O269       Zr279   2.447       .  S
O269        C288   1.287       .  A
O270       Zr278   2.434       .  S
O270        C289   1.284       .  A
O271        C288   1.282       .  A
O272       Zr280   2.415       .  S
O272        C287   1.281       .  A
O273       Zr278   2.390       .  S
O273       Zr280   2.383       .  S
O274       Zr279   2.389       .  S
O274       Zr280   2.370       .  S
O274        H309   0.964       .  S
O275       Zr278   2.397       .  S
O275       Zr295   2.393       .  S
O275        H312   0.963       .  S
O276       Zr279   2.390       .  S
O276       Zr295   2.396       .  S
Zr277       O302   2.442       .  S
Zr277       O296   2.410       .  S
Zr277       O304   2.447       .  S
Zr277       O292   2.445       .  S
Zr277       O283   2.403       .  S
Zr277       O284   2.401       .  S
Zr277       O285   2.380       .  S
Zr277       O286   2.385       .  S
Zr278       O297   2.438       .  S
Zr278       O290   2.434       .  S
Zr278       O291   2.420       .  S
Zr278       O284   2.399       .  S
Zr278       O285   2.388       .  S
Zr279       O281   2.433       .  S
Zr279       O303   2.438       .  S
Zr279       O305   2.442       .  S
Zr279       O283   2.396       .  S
Zr279       O286   2.392       .  S
Zr280       O306   2.435       .  S
Zr280       O307   2.436       .  S
Zr280       O282   2.434       .  S
Zr280       O283   2.395       .  S
Zr280       O284   2.391       .  S
O281        H318   0.990       .  S
O282        H313   0.990       .  S
O282        H327   0.990       .  S
O284        H310   0.966       .  S
O285       Zr295   2.374       .  S
O286       Zr295   2.371       .  S
O286        H311   0.966       .  S
C287       C1413   1.479       .  S
C288       C1184   1.476       .  S
C289       C1124   1.482       .  S
O290        H326   0.990       .  S
O291        C293   1.283       .  A
O292        C293   1.286       .  A
C293       C1193   1.482       .  S
O294       Zr295   2.439       .  S
O294        H323   0.990       .  S
Zr295       O298   2.434       .  S
Zr295       O299   2.438       .  S
Zr295       O300   2.442       .  S
O296        C301   1.281       .  A
O297        H314   0.990       .  S
O297        H329   0.990       .  S
O298        H315   0.989       .  S
O299        H319   0.990       .  S
O299        H328   0.990       .  S
O300        C301   1.286       .  A
C301       C1433   1.483   1_455  S
O302        H321   0.990       .  S
O302        H325   0.991       .  S
O303        H317   0.990       .  S
O303        H324   0.990       .  S
O304        C308   1.288       .  A
O305        C308   1.287       .  A
O306        H316   0.991       .  S
O307        H320   0.990       .  S
C308       C1144   1.490       .  S
Zr331       O332   2.440       .  S
Zr331       O333   2.430       .  S
Zr331       O334   2.430       .  S
Zr331       O337   2.427       .  S
Zr331       O339   2.382       .  S
Zr331       O340   2.382       .  S
Zr331       O341   2.403       .  S
Zr331       O342   2.402       .  S
O332        H388   0.990       .  S
O332        H396   0.990       .  S
O333        C353   1.282       .  A
O334        C355   1.284       .  A
O335       Zr345   2.436       .  S
O335        C354   1.285       .  A
O336       Zr344   2.430       .  S
O336        C355   1.283       .  A
O337        C354   1.284       .  A
O338       Zr346   2.421       .  S
O338        C353   1.282       .  A
O339       Zr344   2.392       .  S
O339       Zr346   2.375       .  S
O340       Zr345   2.394       .  S
O340       Zr346   2.371       .  S
O340        H375   0.965       .  S
O341       Zr344   2.398       .  S
O341       Zr361   2.388       .  S
O341        H378   0.971       .  S
O342       Zr345   2.395       .  S
O342       Zr361   2.398       .  S
Zr343       O368   2.439       .  S
Zr343       O362   2.425       .  S
Zr343       O370   2.438       .  S
Zr343       O358   2.430       .  S
Zr343       O349   2.400       .  S
Zr343       O350   2.405       .  S
Zr343       O351   2.377       .  S
Zr343       O352   2.379       .  S
Zr344       O363   2.438       .  S
Zr344       O356   2.436       .  S
Zr344       O357   2.433       .  S
Zr344       O350   2.396       .  S
Zr344       O351   2.380       .  S
Zr345       O347   2.434       .  S
Zr345       O369   2.436       .  S
Zr345       O371   2.449       .  S
Zr345       O349   2.396       .  S
Zr345       O352   2.385       .  S
Zr346       O372   2.436       .  S
Zr346       O373   2.436       .  S
Zr346       O348   2.439       .  S
Zr346       O349   2.405       .  S
Zr346       O350   2.394       .  S
O347        H384   0.990       .  S
O348        H379   0.990       .  S
O348        H393   0.990       .  S
O350        H376   0.966       .  S
O351       Zr361   2.369       .  S
O352       Zr361   2.372       .  S
O352        H377   0.965       .  S
C353       C1284   1.475       .  S
C354       C1344   1.469       .  S
C355       C1104   1.478       .  S
O356        H392   0.990       .  S
O357        C359   1.287       .  A
O358        C359   1.283       .  A
C359       C1313   1.496   1_545  S
O360       Zr361   2.440       .  S
O360        H389   0.990       .  S
Zr361       O364   2.437       .  S
Zr361       O365   2.439       .  S
Zr361       O366   2.429       .  S
O362        C367   1.284       .  A
O363        H380   0.990       .  S
O363        H395   0.990       .  S
O364        H381   0.990       .  S
O365        H385   0.990       .  S
O365        H394   0.990       .  S
O366        C367   1.283       .  A
C367       C1253   1.486   1_655  S
O368        H387   0.990       .  S
O368        H391   0.990       .  S
O369        H383   0.990       .  S
O369        H390   0.990       .  S
O370        C374   1.285       .  A
O371        C374   1.289       .  A
O372        H382   0.990       .  S
O373        H386   0.990       .  S
C374       C1133   1.502       .  S
Zr397       O398   2.438       .  S
Zr397       O399   2.422       .  S
Zr397       O400   2.435       .  S
Zr397       O403   2.437       .  S
Zr397       O405   2.378       .  S
Zr397       O406   2.378       .  S
Zr397       O407   2.404       .  S
Zr397       O408   2.401       .  S
O398        H454   0.991       .  S
O398        H462   0.990       .  S
O399        C419   1.284       .  A
O400        C421   1.285       .  A
O401       Zr411   2.428       .  S
O401        C420   1.285       .  A
O402       Zr410   2.436       .  S
O402        C421   1.285       .  A
O403        C420   1.285       .  A
O404       Zr412   2.430       .  S
O404        C419   1.283       .  A
O405       Zr410   2.384       .  S
O405       Zr412   2.371       .  S
O406       Zr411   2.380       .  S
O406       Zr412   2.377       .  S
O406        H441   0.966       .  S
O407       Zr410   2.396       .  S
O407       Zr427   2.405       .  S
O407        H444   0.969       .  S
O408       Zr411   2.391       .  S
O408       Zr427   2.400       .  S
Zr409       O434   2.445       .  S
Zr409       O428   2.424       .  S
Zr409       O436   2.438       .  S
Zr409       O424   2.417       .  S
Zr409       O415   2.394       .  S
Zr409       O416   2.404       .  S
Zr409       O417   2.375       .  S
Zr409       O418   2.379       .  S
Zr410       O429   2.437       .  S
Zr410       O422   2.435       .  S
Zr410       O423   2.423       .  S
Zr410       O416   2.399       .  S
Zr410       O417   2.385       .  S
Zr411       O413   2.436       .  S
Zr411       O435   2.437       .  S
Zr411       O437   2.418       .  S
Zr411       O415   2.391       .  S
Zr411       O418   2.387       .  S
Zr412       O438   2.434       .  S
Zr412       O439   2.437       .  S
Zr412       O414   2.435       .  S
Zr412       O415   2.394       .  S
Zr412       O416   2.397       .  S
O413        H450   0.990       .  S
O414        H445   0.990       .  S
O414        H459   0.990       .  S
O416        H442   0.966       .  S
O417       Zr427   2.360       .  S
O418       Zr427   2.380       .  S
O418        H443   0.967       .  S
C419       C1053   1.482       .  S
C420       C1024   1.498       .  S
C421       C1084   1.484       .  S
O422        H458   0.989       .  S
O423        C425   1.282       .  A
O424        C425   1.283       .  A
C425        C993   1.487       .  S
O426       Zr427   2.438       .  S
O426        H455   0.990       .  S
Zr427       O430   2.440       .  S
Zr427       O431   2.436       .  S
Zr427       O432   2.437       .  S
O428        C433   1.283       .  A
O429        H446   0.990       .  S
O429        H461   0.990       .  S
O430        H447   0.990       .  S
O431        H451   0.990       .  S
O431        H460   0.990       .  S
O432        C433   1.284       .  A
C433       C1033   1.473       .  S
O434        H453   0.990       .  S
O434        H457   0.990       .  S
O435        H449   0.990       .  S
O435        H456   0.990       .  S
O436        C440   1.285       .  A
O437        C440   1.283       .  A
O438        H448   0.990       .  S
O439        H452   0.990       .  S
C440       C1404   1.477       .  S
Zr463       O464   2.436       .  S
Zr463       O465   2.427       .  S
Zr463       O466   2.435       .  S
Zr463       O469   2.424       .  S
Zr463       O471   2.379       .  S
Zr463       O472   2.382       .  S
Zr463       O473   2.399       .  S
Zr463       O474   2.400       .  S
O464        H520   0.990       .  S
O464        H528   0.990       .  S
O465        C485   1.283       .  A
O466        C487   1.285       .  A
O467       Zr477   2.438       .  S
O467        C486   1.286       .  A
O468       Zr476   2.436       .  S
O468        C487   1.286       .  A
O469        C486   1.285       .  A
O470       Zr478   2.436       .  S
O470        C485   1.285       .  A
O471       Zr476   2.389       .  S
O471       Zr478   2.367       .  S
O472       Zr477   2.383       .  S
O472       Zr478   2.372       .  S
O472        H507   0.965       .  S
O473       Zr476   2.394       .  S
O473       Zr493   2.399       .  S
O473        H510   0.968       .  S
O474       Zr477   2.395       .  S
O474       Zr493   2.394       .  S
Zr475       O500   2.442       .  S
Zr475       O494   2.435       .  S
Zr475       O502   2.425       .  S
Zr475       O490   2.418       .  S
Zr475       O481   2.396       .  S
Zr475       O482   2.409       .  S
Zr475       O483   2.374       .  S
Zr475       O484   2.382       .  S
Zr476       O495   2.434       .  S
Zr476       O488   2.436       .  S
Zr476       O489   2.438       .  S
Zr476       O482   2.396       .  S
Zr476       O483   2.377       .  S
Zr477       O479   2.435       .  S
Zr477       O501   2.437       .  S
Zr477       O503   2.435       .  S
Zr477       O481   2.388       .  S
Zr477       O484   2.391       .  S
Zr478       O504   2.436       .  S
Zr478       O505   2.436       .  S
Zr478       O480   2.437       .  S
Zr478       O481   2.398       .  S
Zr478       O482   2.400       .  S
O479        H516   0.990       .  S
O480        H511   0.990       .  S
O480        H525   0.990       .  S
O482        H508   0.967       .  S
O483       Zr493   2.368       .  S
O484       Zr493   2.385       .  S
O484        H509   0.968       .  S
C485        C953   1.472       .  S
C486        C913   1.478       .  S
C487       C1073   1.476       .  S
O488        H524   0.990       .  S
O489        C491   1.287       .  A
O490        C491   1.281       .  A
C491        C944   1.476       .  S
O492       Zr493   2.439       .  S
O492        H521   0.990       .  S
Zr493       O496   2.438       .  S
Zr493       O497   2.438       .  S
Zr493       O498   2.422       .  S
O494        C499   1.285       .  A
O495        H512   0.990       .  S
O495        H527   0.990       .  S
O496        H513   0.990       .  S
O497        H517   0.990       .  S
O497        H526   0.990       .  S
O498        C499   1.281       .  A
C499        C973   1.472       .  S
O500        H519   0.990       .  S
O500        H523   0.990       .  S
O501        H515   0.990       .  S
O501        H522   0.990       .  S
O502        C506   1.283       .  A
O503        C506   1.286       .  A
O504        H514   0.990       .  S
O505        H518   0.990       .  S
C506       C1304   1.485       .  S
Zr529       O530   2.439       .  S
Zr529       O531   2.422       .  S
Zr529       O532   2.434       .  S
Zr529       O535   2.425       .  S
Zr529       O537   2.378       .  S
Zr529       O538   2.382       .  S
Zr529       O539   2.403       .  S
Zr529       O540   2.398       .  S
O530        H586   0.991       .  S
O530        H594   0.990       .  S
O531        C551   1.283   1_545  A
O532        C553   1.286       .  A
O533       Zr543   2.435       .  S
O533        C552   1.285       .  A
O534       Zr542   2.432       .  S
O534        C553   1.285       .  A
O535        C552   1.285       .  A
O536       Zr544   2.446       .  S
O536        C551   1.287   1_545  A
O537       Zr542   2.389       .  S
O537       Zr544   2.369       .  S
O538       Zr543   2.385       .  S
O538       Zr544   2.374       .  S
O538        H573   0.966       .  S
O539       Zr542   2.398       .  S
O539       Zr559   2.400       .  S
O539        H576   0.970       .  S
O540       Zr543   2.389       .  S
O540       Zr559   2.388       .  S
Zr541       O566   2.438       .  S
Zr541       O560   2.433       .  S
Zr541       O568   2.440       .  S
Zr541       O556   2.426       .  S
Zr541       O547   2.397       .  S
Zr541       O548   2.406       .  S
Zr541       O549   2.376       .  S
Zr541       O550   2.381       .  S
Zr542       O561   2.434       .  S
Zr542       O554   2.434       .  S
Zr542       O555   2.432       .  S
Zr542       O548   2.399       .  S
Zr542       O549   2.387       .  S
Zr543       O545   2.434       .  S
Zr543       O567   2.438       .  S
Zr543       O569   2.427       .  S
Zr543       O547   2.390       .  S
Zr543       O550   2.390       .  S
Zr544       O570   2.435       .  S
Zr544       O571   2.435       .  S
Zr544       O546   2.438   1_545  S
Zr544       O547   2.398       .  S
Zr544       O548   2.402       .  S
O545        H582   0.990       .  S
O546        H577   0.990       .  S
O546        H591   0.990       .  S
O548        H574   0.966       .  S
O549       Zr559   2.373       .  S
O550       Zr559   2.385       .  S
O550        H575   0.966       .  S
C551        C924   1.487       .  S
C552        C884   1.485       .  S
C553        C853   1.483       .  S
O554        H590   0.990       .  S
O555        C557   1.284       .  A
O556        C557   1.281       .  A
C557        C893   1.481       .  S
O558       Zr559   2.440       .  S
O558        H587   0.990       .  S
Zr559       O562   2.438       .  S
Zr559       O563   2.439       .  S
Zr559       O564   2.417       .  S
O560        C565   1.282       .  A
O561        H578   0.990       .  S
O561        H593   0.989       .  S
O562        H579   0.990       .  S
O563        H583   0.990       .  S
O563        H592   0.989       .  S
O564        C565   1.282       .  A
C565        C933   1.487       .  S
O566        H585   0.990       .  S
O566        H589   0.991       .  S
O567        H581   0.990       .  S
O567        H588   0.990       .  S
O568        C572   1.286       .  A
O569        C572   1.284       .  A
O570        H580   0.990       .  S
O571        H584   0.990       .  S
C572       C1213   1.482       .  S
Zr595       O596   2.438       .  S
Zr595       O597   2.429       .  S
Zr595       O598   2.419       .  S
Zr595       O601   2.423       .  S
Zr595       O603   2.378       .  S
Zr595       O604   2.382       .  S
Zr595       O605   2.405       .  S
Zr595       O606   2.398       .  S
O596        H652   0.991       .  S
O596        H660   0.990       .  S
O597        C617   1.283       .  A
O598        C619   1.283       .  A
O599       Zr609   2.437       .  S
O599        C618   1.285       .  A
O600       Zr608   2.447       .  S
O600        C619   1.287       .  A
O601        C618   1.283       .  A
O602       Zr610   2.429       .  S
O602        C617   1.283       .  A
O603       Zr608   2.390       .  S
O603       Zr610   2.373       .  S
O604       Zr609   2.381       .  S
O604       Zr610   2.373       .  S
O604        H639   0.966       .  S
O605       Zr608   2.400       .  S
O605       Zr625   2.404       .  S
O605        H642   0.969       .  S
O606       Zr609   2.386       .  S
O606       Zr625   2.392       .  S
Zr607       O632   2.445       .  S
Zr607       O626   2.438       .  S
Zr607       O634   2.417       .  S
Zr607       O622   2.425       .  S
Zr607       O613   2.398       .  S
Zr607       O614   2.401       .  S
Zr607       O615   2.374       .  S
Zr607       O616   2.383       .  S
Zr608       O627   2.433       .  S
Zr608       O620   2.436       .  S
Zr608       O621   2.444       .  S
Zr608       O614   2.395       .  S
Zr608       O615   2.387       .  S
Zr609       O611   2.433       .  S
Zr609       O633   2.438       .  S
Zr609       O635   2.420       .  S
Zr609       O613   2.391       .  S
Zr609       O616   2.387       .  S
Zr610       O636   2.436       .  S
Zr610       O637   2.437       .  S
Zr610       O612   2.437       .  S
Zr610       O613   2.389       .  S
Zr610       O614   2.402       .  S
O611        H648   0.990       .  S
O612        H643   0.990       .  S
O612        H657   0.990       .  S
O614        H640   0.966       .  S
O615       Zr625   2.374       .  S
O616       Zr625   2.376       .  S
O616        H641   0.966       .  S
C617        C844   1.470       .  S
C618       C1064   1.472       .  S
C619        C864   1.487       .  S
O620        H656   0.990       .  S
O621        C623   1.288       .  A
O622        C623   1.281       .  A
C623       C1044   1.499       .  S
O624       Zr625   2.438       .  S
O624        H653   0.990       .  S
Zr625       O628   2.433       .  S
Zr625       O629   2.438       .  S
Zr625       O630   2.428       .  S
O626        C631   1.285       .  A
O627        H644   0.990       .  S
O627        H659   0.989       .  S
O628        H645   0.989       .  S
O629        H649   0.990       .  S
O629        H658   0.989       .  S
O630        C631   1.284       .  A
C631        C813   1.478       .  S
O632        H651   0.990       .  S
O632        H655   0.990       .  S
O633        H647   0.990       .  S
O633        H654   0.990       .  S
O634        C638   1.281       .  A
O635        C638   1.284       .  A
O636        H646   0.990       .  S
O637        H650   0.990       .  S
C638       C1164   1.478       .  S
Zr661       O662   2.439       .  S
Zr661       O663   2.437       .  S
Zr661       O664   2.419       .  S
Zr661       O667   2.421       .  S
Zr661       O669   2.378       .  S
Zr661       O670   2.378       .  S
Zr661       O671   2.403       .  S
Zr661       O672   2.400       .  S
O662        H718   0.990       .  S
O662        H726   0.990       .  S
O663        C683   1.285       .  A
O664        C685   1.280       .  A
O665       Zr675   2.444       .  S
O665        C684   1.288       .  A
O666       Zr674   2.435       .  S
O666        C685   1.286       .  A
O667        C684   1.282       .  A
O668       Zr676   2.433       .  S
O668        C683   1.284       .  A
O669       Zr674   2.394       .  S
O669       Zr676   2.372       .  S
O670       Zr675   2.386       .  S
O670       Zr676   2.374       .  S
O670        H705   0.966       .  S
O671       Zr674   2.399       .  S
O671       Zr691   2.399       .  S
O671        H708   0.967       .  S
O672       Zr675   2.387       .  S
O672       Zr691   2.392       .  S
Zr673       O698   2.441       .  S
Zr673       O692   2.436       .  S
Zr673       O700   2.428       .  S
Zr673       O688   2.432       .  S
Zr673       O679   2.399       .  S
Zr673       O680   2.403       .  S
Zr673       O681   2.376       .  S
Zr673       O682   2.384       .  S
Zr674       O693   2.437       .  S
Zr674       O686   2.433       .  S
Zr674       O687   2.447       .  S
Zr674       O680   2.395       .  S
Zr674       O681   2.387       .  S
Zr675       O677   2.435       .  S
Zr675       O699   2.439       .  S
Zr675       O701   2.425       .  S
Zr675       O679   2.395       .  S
Zr675       O682   2.392       .  S
Zr676       O702   2.434       .  S
Zr676       O703   2.434       .  S
Zr676       O678   2.437       .  S
Zr676       O679   2.389       .  S
Zr676       O680   2.403       .  S
O677        H714   0.990       .  S
O678        H709   0.990       .  S
O678        H723   0.990       .  S
O680        H706   0.966       .  S
O681       Zr691   2.378       .  S
O682       Zr691   2.383       .  S
O682        H707   0.968       .  S
C683       C1013   1.478       .  S
C684        C833   1.487       .  S
C685        C793   1.491       .  S
O686        H722   0.990       .  S
O687        C689   1.287       .  A
O688        C689   1.284       .  A
C689        C824   1.484       .  S
O690       Zr691   2.441       .  S
O690        H719   0.990       .  S
Zr691       O694   2.437       .  S
Zr691       O695   2.444       .  S
Zr691       O696   2.413       .  S
O692        C697   1.284       .  A
O693        H710   0.990       .  S
O693        H725   0.990       .  S
O694        H711   0.990       .  S
O695        H715   0.990       .  S
O695        H724   0.990       .  S
O696        C697   1.280       .  A
C697       C1004   1.470       .  S
O698        H717   0.990       .  S
O698        H721   0.991       .  S
O699        H713   0.990       .  S
O699        H720   0.990       .  S
O700        C704   1.282       .  A
O701        C704   1.284       .  A
O702        H712   0.990       .  S
O703        H716   0.990       .  S
C704       C1113   1.477       .  S
Zr727       O728   2.438       .  S
Zr727       O729   2.420       .  S
Zr727       O730   2.427       .  S
Zr727       O733   2.438       .  S
Zr727       O735   2.381       .  S
Zr727       O736   2.377       .  S
Zr727       O737   2.406       .  S
Zr727       O738   2.394       .  S
O728        H784   0.990       .  S
O728        H792   0.990       .  S
O729        C749   1.283       .  A
O730        C751   1.283       .  A
O731       Zr741   2.422       .  S
O731        C750   1.284       .  A
O732       Zr740   2.420       .  S
O732        C751   1.283       .  A
O733        C750   1.285       .  A
O734       Zr742   2.444       .  S
O734        C749   1.285       .  A
O735       Zr740   2.391       .  S
O735       Zr742   2.367       .  S
O736       Zr741   2.383       .  S
O736       Zr742   2.373       .  S
O736        H771   0.965       .  S
O737       Zr740   2.402       .  S
O737       Zr757   2.396       .  S
O737        H774   0.968       .  S
O738       Zr741   2.385       .  S
O738       Zr757   2.390       .  S
Zr739       O764   2.440       .  S
Zr739       O758   2.442       .  S
Zr739       O766   2.440       .  S
Zr739       O754   2.425       .  S
Zr739       O745   2.399       .  S
Zr739       O746   2.409       .  S
Zr739       O747   2.379       .  S
Zr739       O748   2.379       .  S
Zr740       O759   2.435       .  S
Zr740       O752   2.434       .  S
Zr740       O753   2.443       .  S
Zr740       O746   2.394       .  S
Zr740       O747   2.382       .  S
Zr741       O743   2.432       .  S
Zr741       O765   2.439       .  S
Zr741       O767   2.407       .  S
Zr741       O745   2.394       .  S
Zr741       O748   2.389       .  S
Zr742       O768   2.433       .  S
Zr742       O769   2.435       .  S
Zr742       O744   2.435       .  S
Zr742       O745   2.398       .  S
Zr742       O746   2.401       .  S
O743        H780   0.990       .  S
O744        H775   0.990   1_655  S
O744        H789   0.990       .  S
O746        H772   0.967       .  S
O747       Zr757   2.377       .  S
O748       Zr757   2.386       .  S
O748        H773   0.965       .  S
C749        C873   1.486   1_655  S
C750        C964   1.493   1_545  S
C751        C804   1.465       .  S
O752        H788   0.990       .  S
O753        C755   1.286       .  A
O754        C755   1.284       .  A
C755        C984   1.489       .  S
O756       Zr757   2.441       .  S
O756        H785   0.990       .  S
Zr757       O760   2.436       .  S
Zr757       O761   2.441       .  S
Zr757       O762   2.407       .  S
O758        C763   1.285       .  A
O759        H776   0.990       .  S
O759        H791   0.990       .  S
O760        H777   0.990       .  S
O761        H781   0.990       .  S
O761        H790   0.989       .  S
O762        C763   1.279       .  A
C763        C904   1.468       .  S
O764        H783   0.990       .  S
O764        H787   0.990       .  S
O765        H779   0.990       .  S
O765        H786   0.990       .  S
O766        C770   1.284       .  A
O767        C770   1.281       .  A
O768        H778   0.990       .  S
O769        H782   0.990       .  S
C770       C1093   1.478       .  S
C793        C794   1.421       .  A
C793        C798   1.410       .  A
C794        C795   1.397       .  A
C794       Br810   1.923       .  S
C795        C796   1.397       .  A
C795        H799   1.084       .  S
C796        C800   1.475   1_456  S
C796        C797   1.405       .  A
C797        C798   1.399       .  A
C797       Br809   1.919       .  S
C798        H801   1.083       .  S
C800        C802   1.405   1_655  A
C800        C806   1.406       .  A
C802        C803   1.401   1_455  A
C802        H807   1.083       .  S
C803        C804   1.408       .  A
C803       Br811   1.922   1_655  S
C804        C805   1.399       .  A
C805        C806   1.394       .  A
C805        H808   1.084       .  S
C806       Br812   1.917   1_554  S
C813        C814   1.410       .  A
C813        C818   1.406       .  A
C814        C815   1.398       .  A
C814       Br830   1.918       .  S
C815        C816   1.400       .  A
C815        H819   1.084       .  S
C816        C820   1.479       .  S
C816        C817   1.408       .  A
C817        C818   1.403       .  A
C817       Br829   1.919       .  S
C818        H821   1.083       .  S
C820        C822   1.400       .  A
C820        C826   1.408       .  A
C822        C823   1.400       .  A
C822        H827   1.084       .  S
C823        C824   1.414       .  A
C823       Br831   1.917       .  S
C824        C825   1.406       .  A
C825        C826   1.402       .  A
C825        H828   1.083       .  S
C826       Br832   1.920       .  S
C833        C834   1.419       .  A
C833        C838   1.407       .  A
C834        C835   1.400       .  A
C834       Br850   1.923       .  S
C835        C836   1.399       .  A
C835        H839   1.084       .  S
C836        C840   1.476       .  S
C836        C837   1.405       .  A
C837        C838   1.399       .  A
C837       Br849   1.918       .  S
C838        H841   1.083       .  S
C840        C842   1.402       .  A
C840        C846   1.408       .  A
C842        C843   1.397   1_545  A
C842        H847   1.084       .  S
C843        C844   1.409       .  A
C843       Br851   1.920       .  S
C844        C845   1.403       .  A
C845        C846   1.400   1_565  A
C845        H848   1.084       .  S
C846       Br852   1.916       .  S
C853        C854   1.414       .  A
C853        C858   1.407   1_545  A
C854        C855   1.399       .  A
C854       Br870   1.917       .  S
C855        C856   1.399   1_545  A
C855        H859   1.084       .  S
C856        C860   1.478   1_554  S
C856        C857   1.407       .  A
C857        C858   1.400       .  A
C857       Br869   1.918       .  S
C858        H861   1.084       .  S
C860        C862   1.402       .  A
C860        C866   1.405       .  A
C862        C863   1.402       .  A
C862        H867   1.084   1_556  S
C863        C864   1.415       .  A
C863       Br871   1.917       .  S
C864        C865   1.408       .  A
C865        C866   1.397       .  A
C865        H868   1.084       .  S
C866       Br872   1.918       .  S
C873        C874   1.415       .  A
C873        C878   1.409       .  A
C874        C875   1.400       .  A
C874       Br890   1.917       .  S
C875        C876   1.401       .  A
C875        H879   1.084       .  S
C876        C880   1.477       .  S
C876        C877   1.405       .  A
C877        C878   1.398       .  A
C877       Br889   1.919       .  S
C878        H881   1.083   1_455  S
C880        C882   1.400       .  A
C880        C886   1.406       .  A
C882        C883   1.399       .  A
C882        H887   1.084       .  S
C883        C884   1.415       .  A
C883       Br891   1.918       .  S
C884        C885   1.408       .  A
C885        C886   1.398       .  A
C885        H888   1.083       .  S
C886       Br892   1.918       .  S
C893        C894   1.417       .  A
C893        C898   1.408       .  A
C894        C895   1.395       .  A
C894       Br910   1.919       .  S
C895        C896   1.396       .  A
C895        H899   1.084       .  S
C896        C900   1.468       .  S
C896        C897   1.404       .  A
C897        C898   1.400       .  A
C897       Br909   1.919       .  S
C898        H901   1.083       .  S
C900        C902   1.400       .  A
C900        C906   1.404       .  A
C902        C903   1.397       .  A
C902        H907   1.084       .  S
C903        C904   1.407       .  A
C903       Br911   1.912       .  S
C904        C905   1.404       .  A
C905        C906   1.396       .  A
C905        H908   1.084       .  S
C906       Br912   1.919       .  S
C913        C914   1.412   1_655  A
C913        C918   1.406   1_655  A
C914        C915   1.399       .  A
C914       Br930   1.918   1_455  S
C915        C916   1.401       .  A
C915        H919   1.084       .  S
C916        C920   1.476       .  S
C916        C917   1.406       .  A
C917        C918   1.399       .  A
C917       Br929   1.917       .  S
C918        H921   1.084   1_455  S
C920        C922   1.400       .  A
C920        C926   1.405       .  A
C922        C923   1.399       .  A
C922        H927   1.084       .  S
C923        C924   1.414       .  A
C923       Br931   1.918       .  S
C924        C925   1.410       .  A
C925        C926   1.401       .  A
C925        H928   1.084       .  S
C926       Br932   1.920       .  S
C933        C934   1.417       .  A
C933        C938   1.409       .  A
C934        C935   1.399       .  A
C934       Br950   1.921       .  S
C935        C936   1.402       .  A
C935        H939   1.084       .  S
C936        C940   1.477       .  S
C936        C937   1.407       .  A
C937        C938   1.394       .  A
C937       Br949   1.921       .  S
C938        H941   1.083       .  S
C940        C942   1.401       .  A
C940        C946   1.408       .  A
C942        C943   1.397       .  A
C942        H947   1.084       .  S
C943        C944   1.415       .  A
C943       Br951   1.920       .  S
C944        C945   1.404       .  A
C945        C946   1.396       .  A
C945        H948   1.084       .  S
C946       Br952   1.920       .  S
C953        C954   1.409       .  A
C953        C958   1.403       .  A
C954        C955   1.397       .  A
C954       Br970   1.919       .  S
C955        C956   1.402       .  A
C955        H959   1.084       .  S
C956        C960   1.479       .  S
C956        C957   1.409       .  A
C957        C958   1.402       .  A
C957       Br969   1.918       .  S
C958        H961   1.084       .  S
C960        C962   1.401       .  A
C960        C966   1.404       .  A
C962        C963   1.402       .  A
C962        H967   1.084       .  S
C963        C964   1.420       .  A
C963       Br971   1.921   1_565  S
C964        C965   1.412       .  A
C965        C966   1.397       .  A
C965        H968   1.083       .  S
C966       Br972   1.921       .  S
C973        C974   1.412       .  A
C973        C978   1.402       .  A
C974        C975   1.396       .  A
C974       Br990   1.920       .  S
C975        C976   1.399       .  A
C975        H979   1.084       .  S
C976        C980   1.475       .  S
C976        C977   1.408       .  A
C977        C978   1.401       .  A
C977       Br989   1.916       .  S
C978        H981   1.083       .  S
C980        C982   1.400       .  A
C980        C986   1.404       .  A
C982        C983   1.400       .  A
C982        H987   1.084       .  S
C983        C984   1.417       .  A
C983       Br991   1.918       .  S
C984        C985   1.410       .  A
C985        C986   1.398       .  A
C985        H988   1.083       .  S
C986       Br992   1.918       .  S
C993        C994   1.419       .  A
C993        C998   1.410       .  A
C994        C995   1.397       .  A
C994      Br1010   1.924       .  S
C995        C996   1.402       .  A
C995        H999   1.084       .  S
C996       C1000   1.479       .  S
C996        C997   1.405       .  A
C997        C998   1.394       .  A
C997      Br1009   1.921       .  S
C998       H1001   1.083       .  S
C1000      C1002   1.404       .  A
C1000      C1006   1.411       .  A
C1002      C1003   1.398       .  A
C1002      H1007   1.083       .  S
C1003      C1004   1.409       .  A
C1003     Br1011   1.918       .  S
C1004      C1005   1.402       .  A
C1005      C1006   1.395       .  A
C1005      H1008   1.084       .  S
C1006     Br1012   1.923       .  S
C1013      C1014   1.411   1_455  A
C1013      C1018   1.403   1_455  A
C1014      C1015   1.400       .  A
C1014     Br1030   1.919   1_655  S
C1015      C1016   1.404       .  A
C1015      H1019   1.084       .  S
C1016      C1020   1.487       .  S
C1016      C1017   1.411       .  A
C1017      C1018   1.402       .  A
C1017     Br1029   1.918       .  S
C1018      H1021   1.083       .  S
C1020      C1022   1.404   1_545  A
C1020      C1026   1.406       .  A
C1022      C1023   1.406       .  A
C1022      H1027   1.084       .  S
C1023      C1024   1.421       .  A
C1023     Br1031   1.922       .  S
C1024      C1025   1.410       .  A
C1025      C1026   1.395   1_565  A
C1025      H1028   1.083       .  S
C1026     Br1032   1.919       .  S
C1033      C1034   1.408       .  A
C1033      C1038   1.402       .  A
C1034      C1035   1.399       .  A
C1034     Br1050   1.918       .  S
C1035      C1036   1.405       .  A
C1035      H1039   1.083       .  S
C1036      C1040   1.487       .  S
C1036      C1037   1.413       .  A
C1037      C1038   1.400       .  A
C1037     Br1049   1.919       .  S
C1038      H1041   1.084       .  S
C1040      C1042   1.400       .  A
C1040      C1046   1.409       .  A
C1042      C1043   1.401       .  A
C1042      H1047   1.084       .  S
C1043      C1044   1.424       .  A
C1043     Br1051   1.925       .  S
C1044      C1045   1.410       .  A
C1045      C1046   1.400       .  A
C1045      H1048   1.083       .  S
C1046     Br1052   1.922       .  S
C1053      C1054   1.415       .  A
C1053      C1058   1.407       .  A
C1054      C1055   1.400       .  A
C1054     Br1070   1.919       .  S
C1055      C1056   1.401       .  A
C1055      H1059   1.084       .  S
C1056      C1060   1.473       .  S
C1056      C1057   1.403       .  A
C1057      C1058   1.395       .  A
C1057     Br1069   1.918       .  S
C1058      H1061   1.082       .  S
C1060      C1062   1.400       .  A
C1060      C1066   1.406       .  A
C1062      C1063   1.397   1_655  A
C1062      H1067   1.084       .  S
C1063      C1064   1.409       .  A
C1063     Br1071   1.917       .  S
C1064      C1065   1.404   1_455  A
C1065      C1066   1.400       .  A
C1065      H1068   1.084   1_655  S
C1066     Br1072   1.918       .  S
C1073      C1074   1.411       .  A
C1073      C1078   1.404       .  A
C1074      C1075   1.400       .  A
C1074     Br1090   1.918       .  S
C1075      C1076   1.401       .  A
C1075      H1079   1.084       .  S
C1076      C1080   1.478   1_554  S
C1076      C1077   1.408       .  A
C1077      C1078   1.400       .  A
C1077     Br1089   1.917       .  S
C1078      H1081   1.084       .  S
C1080      C1082   1.400       .  A
C1080      C1086   1.406       .  A
C1082      C1083   1.400       .  A
C1082      H1087   1.084       .  S
C1083      C1084   1.415       .  A
C1083     Br1091   1.919       .  S
C1084      C1085   1.407       .  A
C1085      C1086   1.401       .  A
C1085      H1088   1.083       .  S
C1086     Br1092   1.918   1_556  S
C1093      C1094   1.414       .  A
C1093      C1098   1.407       .  A
C1094      C1095   1.397       .  A
C1094     Br1110   1.914       .  S
C1095      C1096   1.399       .  A
C1095      H1099   1.084       .  S
C1096      C1100   1.470       .  S
C1096      C1097   1.406       .  A
C1097      C1098   1.394       .  A
C1097     Br1109   1.920       .  S
C1098      H1101   1.084       .  S
C1100      C1102   1.400       .  A
C1100      C1106   1.405       .  A
C1102      C1103   1.398       .  A
C1102      H1107   1.084       .  S
C1103      C1104   1.413       .  A
C1103     Br1111   1.918       .  S
C1104      C1105   1.406       .  A
C1105      C1106   1.394       .  A
C1105      H1108   1.083       .  S
C1106     Br1112   1.922       .  S
C1113      C1114   1.414       .  A
C1113      C1118   1.404       .  A
C1114      C1115   1.401       .  A
C1114     Br1130   1.921       .  S
C1115      C1116   1.402       .  A
C1115      H1119   1.083       .  S
C1116      C1120   1.477       .  S
C1116      C1117   1.408       .  A
C1117      C1118   1.395       .  A
C1117     Br1129   1.921       .  S
C1118      H1121   1.084       .  S
C1120      C1122   1.402       .  A
C1120      C1126   1.406       .  A
C1122      C1123   1.399       .  A
C1122      H1127   1.084       .  S
C1123      C1124   1.413       .  A
C1123     Br1131   1.919       .  S
C1124      C1125   1.407       .  A
C1125      C1126   1.397       .  A
C1125      H1128   1.083       .  S
C1126     Br1132   1.920       .  S
C1133      C1134   1.423       .  A
C1133      C1138   1.411       .  A
C1134      C1135   1.404       .  A
C1134     Br1150   1.924       .  S
C1135      C1136   1.402       .  A
C1135      H1139   1.084   1_655  S
C1136      C1140   1.492   1_655  S
C1136      C1137   1.408       .  A
C1137      C1138   1.403       .  A
C1137     Br1149   1.919       .  S
C1138      H1141   1.083       .  S
C1140      C1142   1.405       .  A
C1140      C1146   1.410       .  A
C1142      C1143   1.404       .  A
C1142      H1147   1.083       .  S
C1143      C1144   1.414       .  A
C1143     Br1151   1.920       .  S
C1144      C1145   1.406       .  A
C1145      C1146   1.403       .  A
C1145      H1148   1.084       .  S
C1146     Br1152   1.920   1_455  S
C1153      C1154   1.410       .  A
C1153      C1158   1.404       .  A
C1154      C1155   1.400       .  A
C1154     Br1170   1.919       .  S
C1155      C1156   1.403       .  A
C1155      H1159   1.083       .  S
C1156      C1160   1.471       .  S
C1156      C1157   1.406       .  A
C1157      C1158   1.391       .  A
C1157     Br1169   1.921       .  S
C1158      H1161   1.083       .  S
C1160      C1162   1.401       .  A
C1160      C1166   1.406       .  A
C1162      C1163   1.397       .  A
C1162      H1167   1.084       .  S
C1163      C1164   1.416       .  A
C1163     Br1171   1.923       .  S
C1164      C1165   1.406       .  A
C1165      C1166   1.393       .  A
C1165      H1168   1.083       .  S
C1166     Br1172   1.920       .  S
C1173      C1174   1.410       .  A
C1173      C1178   1.406       .  A
C1174      C1175   1.395       .  A
C1174     Br1190   1.919       .  S
C1175      C1176   1.399       .  A
C1175      H1179   1.084       .  S
C1176      C1180   1.472       .  S
C1176      C1177   1.407       .  A
C1177      C1178   1.401       .  A
C1177     Br1189   1.919       .  S
C1178      H1181   1.083       .  S
C1180      C1182   1.399       .  A
C1180      C1186   1.407       .  A
C1182      C1183   1.396       .  A
C1182      H1187   1.084       .  S
C1183      C1184   1.413       .  A
C1183     Br1191   1.922       .  S
C1184      C1185   1.405       .  A
C1185      C1186   1.400       .  A
C1185      H1188   1.083       .  S
C1186     Br1192   1.919       .  S
C1193      C1194   1.414       .  A
C1193      C1198   1.407       .  A
C1194      C1195   1.402       .  A
C1194     Br1210   1.920       .  S
C1195      C1196   1.402       .  A
C1195      H1199   1.083       .  S
C1196      C1200   1.476       .  S
C1196      C1197   1.404       .  A
C1197      C1198   1.397       .  A
C1197     Br1209   1.919       .  S
C1198      H1201   1.084       .  S
C1200      C1202   1.400       .  A
C1200      C1206   1.408       .  A
C1202      C1203   1.398   1_545  A
C1202      H1207   1.084       .  S
C1203      C1204   1.409       .  A
C1203     Br1211   1.912       .  S
C1204      C1205   1.406       .  A
C1205      C1206   1.401   1_565  A
C1205      H1208   1.084       .  S
C1206     Br1212   1.918       .  S
C1213      C1214   1.413       .  A
C1213      C1218   1.407       .  A
C1214      C1215   1.397       .  A
C1214     Br1230   1.917       .  S
C1215      C1216   1.400       .  A
C1215      H1219   1.084       .  S
C1216      C1220   1.480       .  S
C1216      C1217   1.408       .  A
C1217      C1218   1.401       .  A
C1217     Br1229   1.918       .  S
C1218      H1221   1.084       .  S
C1220      C1222   1.403       .  A
C1220      C1226   1.408       .  A
C1222      C1223   1.402       .  A
C1222      H1227   1.084       .  S
C1223      C1224   1.417       .  A
C1223     Br1231   1.922       .  S
C1224      C1225   1.407       .  A
C1225      C1226   1.396       .  A
C1225      H1228   1.083       .  S
C1226     Br1232   1.920       .  S
C1233      C1234   1.419       .  A
C1233      C1238   1.406       .  A
C1234      C1235   1.402       .  A
C1234     Br1250   1.919       .  S
C1235      C1236   1.400       .  A
C1235      H1239   1.084       .  S
C1236      C1240   1.483       .  S
C1236      C1237   1.406       .  A
C1237      C1238   1.402       .  A
C1237     Br1249   1.918   1_565  S
C1238      H1241   1.079       .  S
C1240      C1242   1.400       .  A
C1240      C1246   1.408   1_565  A
C1242      C1243   1.399       .  A
C1242      H1247   1.084       .  S
C1243      C1244   1.417   1_565  A
C1243     Br1251   1.923       .  S
C1244      C1245   1.410       .  A
C1245      C1246   1.405       .  A
C1245      H1248   1.083       .  S
C1246     Br1252   1.918       .  S
C1253      C1254   1.415       .  A
C1253      C1258   1.407       .  A
C1254      C1255   1.400       .  A
C1254     Br1270   1.922       .  S
C1255      C1256   1.403       .  A
C1255      H1259   1.084       .  S
C1256      C1260   1.483       .  S
C1256      C1257   1.409       .  A
C1257      C1258   1.399       .  A
C1257     Br1269   1.920       .  S
C1258      H1261   1.082   1_455  S
C1260      C1262   1.401       .  A
C1260      C1266   1.408       .  A
C1262      C1263   1.400       .  A
C1262      H1267   1.084       .  S
C1263      C1264   1.418       .  A
C1263     Br1271   1.916       .  S
C1264      C1265   1.407       .  A
C1265      C1266   1.398       .  A
C1265      H1268   1.084       .  S
C1266     Br1272   1.918       .  S
C1273      C1274   1.414       .  A
C1273      C1278   1.407       .  A
C1274      C1275   1.399       .  A
C1274     Br1290   1.917       .  S
C1275      C1276   1.401       .  A
C1275      H1279   1.084       .  S
C1276      C1280   1.472       .  S
C1276      C1277   1.403       .  A
C1277      C1278   1.397       .  A
C1277     Br1289   1.919       .  S
C1278      H1281   1.081       .  S
C1280      C1282   1.403       .  A
C1280      C1286   1.404       .  A
C1282      C1283   1.402       .  A
C1282      H1287   1.083       .  S
C1283      C1284   1.413       .  A
C1283     Br1291   1.920       .  S
C1284      C1285   1.404       .  A
C1285      C1286   1.393       .  A
C1285      H1288   1.084       .  S
C1286     Br1292   1.920       .  S
C1293      C1294   1.413       .  A
C1293      C1298   1.405       .  A
C1294      C1295   1.401       .  A
C1294     Br1310   1.919       .  S
C1295      C1296   1.403       .  A
C1295      H1299   1.083       .  S
C1296      C1300   1.479       .  S
C1296      C1297   1.408       .  A
C1297      C1298   1.396       .  A
C1297     Br1309   1.920       .  S
C1298      H1301   1.083       .  S
C1300      C1302   1.402       .  A
C1300      C1306   1.407       .  A
C1302      C1303   1.401       .  A
C1302      H1307   1.083       .  S
C1303      C1304   1.416       .  A
C1303     Br1311   1.922       .  S
C1304      C1305   1.407       .  A
C1305      C1306   1.397       .  A
C1305      H1308   1.083       .  S
C1306     Br1312   1.922       .  S
C1313      C1314   1.423       .  A
C1313      C1318   1.411       .  A
C1314      C1315   1.400       .  A
C1314     Br1330   1.922   1_565  S
C1315      C1316   1.400       .  A
C1315      H1319   1.084       .  S
C1316      C1320   1.478       .  S
C1316      C1317   1.405       .  A
C1317      C1318   1.396       .  A
C1317     Br1329   1.921       .  S
C1318      H1321   1.083       .  S
C1320      C1322   1.404       .  A
C1320      C1326   1.410       .  A
C1322      C1323   1.396       .  A
C1322      H1327   1.084       .  S
C1323      C1324   1.405       .  A
C1323     Br1331   1.918       .  S
C1324      C1325   1.402       .  A
C1325      C1326   1.398       .  A
C1325      H1328   1.084       .  S
C1326     Br1332   1.919       .  S
C1333      C1334   1.416       .  A
C1333      C1338   1.409       .  A
C1334      C1335   1.404       .  A
C1334     Br1350   1.921       .  S
C1335      C1336   1.403       .  A
C1335      H1339   1.083       .  S
C1336      C1340   1.478       .  S
C1336      C1337   1.404       .  A
C1337      C1338   1.396       .  A
C1337     Br1349   1.920       .  S
C1338      H1341   1.083       .  S
C1340      C1342   1.403       .  A
C1340      C1346   1.409       .  A
C1342      C1343   1.399       .  A
C1342      H1347   1.083       .  S
C1343      C1344   1.407       .  A
C1343     Br1351   1.918       .  S
C1344      C1345   1.402       .  A
C1345      C1346   1.399       .  A
C1345      H1348   1.084       .  S
C1346     Br1352   1.918       .  S
C1353      C1354   1.421       .  A
C1353      C1358   1.413   1_655  A
C1354      C1355   1.399   1_655  A
C1354     Br1370   1.920       .  S
C1355      C1356   1.399       .  A
C1355      H1359   1.084       .  S
C1356      C1360   1.480       .  S
C1356      C1357   1.404       .  A
C1357      C1358   1.400       .  A
C1357     Br1369   1.920       .  S
C1358      H1361   1.083   1_455  S
C1360      C1362   1.402       .  A
C1360      C1366   1.407       .  A
C1362      C1363   1.400       .  A
C1362      H1367   1.083       .  S
C1363      C1364   1.412       .  A
C1363     Br1371   1.918       .  S
C1364      C1365   1.405       .  A
C1365      C1366   1.399       .  A
C1365      H1368   1.084       .  S
C1366     Br1372   1.920       .  S
C1373      C1374   1.411       .  A
C1373      C1378   1.402       .  A
C1374      C1375   1.398       .  A
C1374     Br1390   1.918       .  S
C1375      C1376   1.400       .  A
C1375      H1379   1.084       .  S
C1376      C1380   1.473       .  S
C1376      C1377   1.408       .  A
C1377      C1378   1.398       .  A
C1377     Br1389   1.918       .  S
C1378      H1381   1.084       .  S
C1380      C1382   1.400       .  A
C1380      C1386   1.401       .  A
C1382      C1383   1.401       .  A
C1382      H1387   1.084       .  S
C1383      C1384   1.419       .  A
C1383     Br1391   1.920       .  S
C1384      C1385   1.411       .  A
C1385      C1386   1.396       .  A
C1385      H1388   1.083       .  S
C1386     Br1392   1.920       .  S
C1393      C1394   1.417       .  A
C1393      C1398   1.409       .  A
C1394      C1395   1.401       .  A
C1394     Br1410   1.921       .  S
C1395      C1396   1.402       .  A
C1395      H1399   1.084       .  S
C1396      C1400   1.480       .  S
C1396      C1397   1.406       .  A
C1397      C1398   1.398       .  A
C1397     Br1409   1.919       .  S
C1398      H1401   1.083       .  S
C1400      C1402   1.406       .  A
C1400      C1406   1.407       .  A
C1402      C1403   1.405       .  A
C1402      H1407   1.083       .  S
C1403      C1404   1.411       .  A
C1403     Br1411   1.921       .  S
C1404      C1405   1.404       .  A
C1405      C1406   1.394       .  A
C1405      H1408   1.084       .  S
C1406     Br1412   1.921       .  S
C1413      C1414   1.412       .  A
C1413      C1418   1.405       .  A
C1414      C1415   1.402       .  A
C1414     Br1430   1.921       .  S
C1415      C1416   1.405       .  A
C1415      H1419   1.083       .  S
C1416      C1420   1.481       .  S
C1416      C1417   1.407       .  A
C1417      C1418   1.395       .  A
C1417     Br1429   1.919       .  S
C1418      H1421   1.084       .  S
C1420      C1422   1.403       .  A
C1420      C1426   1.407       .  A
C1422      C1423   1.400       .  A
C1422      H1427   1.084       .  S
C1423      C1424   1.414       .  A
C1423     Br1431   1.919       .  S
C1424      C1425   1.408       .  A
C1425      C1426   1.398       .  A
C1425      H1428   1.084       .  S
C1426     Br1432   1.919       .  S
C1433      C1434   1.415       .  A
C1433      C1438   1.408       .  A
C1434      C1435   1.399       .  A
C1434     Br1450   1.918       .  S
C1435      C1436   1.400       .  A
C1435      H1439   1.084       .  S
C1436      C1440   1.475       .  S
C1436      C1437   1.405       .  A
C1437      C1438   1.397       .  A
C1437     Br1449   1.918       .  S
C1438      H1441   1.084       .  S
C1440      C1442   1.401       .  A
C1440      C1446   1.408   1_545  A
C1442      C1443   1.396   1_545  A
C1442      H1447   1.084       .  S
C1443      C1444   1.409       .  A
C1443     Br1451   1.920       .  S
C1444      C1445   1.405       .  A
C1445      C1446   1.400       .  A
C1445      H1448   1.084       .  S
C1446     Br1452   1.919       .  S
C1453      C1454   1.408       .  A
C1453      C1458   1.404       .  A
C1454      C1455   1.399       .  A
C1454     Br1470   1.919       .  S
C1455      C1456   1.403       .  A
C1455      H1459   1.083       .  S
C1456      C1460   1.480       .  S
C1456      C1457   1.408       .  A
C1457      C1458   1.400       .  A
C1457     Br1469   1.918       .  S
C1458      H1461   1.084       .  S
C1460      C1462   1.400       .  A
C1460      C1466   1.408       .  A
C1462      C1463   1.399       .  A
C1462      H1467   1.084       .  S
C1463      C1464   1.416       .  A
C1463     Br1471   1.918       .  S
C1464      C1465   1.407       .  A
C1465      C1466   1.402       .  A
C1465      H1468   1.083       .  S
C1466     Br1472   1.919       .  S
C1473      C1474   1.415       .  A
C1473      C1478   1.410       .  A
C1474      C1475   1.397       .  A
C1474     Br1490   1.917       .  S
C1475      C1476   1.398       .  A
C1475      H1479   1.084       .  S
C1476      C1480   1.477       .  S
C1476      C1477   1.407       .  A
C1477      C1478   1.402       .  A
C1477     Br1489   1.920       .  S
C1478      H1481   1.083       .  S
C1480      C1482   1.403       .  A
C1480      C1486   1.405       .  A
C1482      C1483   1.402   1_655  A
C1482      H1487   1.083       .  S
C1483      C1484   1.412       .  A
C1483     Br1491   1.917       .  S
C1484      C1485   1.406   1_455  A
C1485      C1486   1.397       .  A
C1485      H1488   1.084       .  S
C1486     Br1492   1.921       .  S
C1493      C1494   1.422       .  A
C1493      C1498   1.410       .  A
C1494      C1495   1.402       .  A
C1494     Br1510   1.923       .  S
C1495      C1496   1.400       .  A
C1495      H1499   1.084       .  S
C1496      C1500   1.483       .  S
C1496      C1497   1.406       .  A
C1497      C1498   1.400       .  A
C1497     Br1509   1.920       .  S
C1498      H1501   1.083       .  S
C1500      C1502   1.402       .  A
C1500      C1506   1.408       .  A
C1502      C1503   1.400       .  A
C1502      H1507   1.083       .  S
C1503      C1504   1.412       .  A
C1503     Br1511   1.918       .  S
C1504      C1505   1.406       .  A
C1505      C1506   1.401       .  A
C1505      H1508   1.081       .  S
C1506     Br1512   1.919       .  S
