geometry optimzed in LAMMPS
_audit_creation_date              2020-12-01 
_audit_creation_method            'lammps2cif' 
_symmetry_space_group_name_H-M    'P1' 
_symmetry_Int_Tables_number       1 
_symmetry_cell_setting            triclinic 
loop_ 
_symmetry_equiv_pos_as_xyz 
  x,y,z 
_cell_length_a                    40.18112499 
_cell_length_b                    40.157497540825254 
_cell_length_c                    41.31181340309233 
_cell_angle_alpha                 90.43474631435797 
_cell_angle_beta                  88.77829159059897 
_cell_angle_gamma                 120.49589120106779 
loop_ 
_atom_site_label 
_atom_site_type_symbol 
_atom_site_fract_x 
_atom_site_fract_y 
_atom_site_fract_z 
_atom_site_charge 
O1          O  0.68938201  0.21593185  0.21485686    -0.82200
C2          C  0.54955751  0.11383375  0.27553686     0.97100
O3          O  0.58335450  0.13928008  0.28309045    -0.71300
O4          O  0.65837312  0.18816673  0.28004245    -0.74900
Al5        Al  0.61477470  0.18325035  0.25759873     1.49000
C6          C  0.67870449  0.17261935  0.27727373     0.92400
O7          O  0.63829234  0.10312828  0.20779000    -0.81100
O8          O  0.59209374  0.12549219  0.16362315    -0.74700
Al9        Al  0.66020765  0.15900285  0.21188908     1.90100
O10         O  0.57596896  0.07978781  0.21679330    -0.73800
O11         O  0.56112340  0.16224152  0.19469252    -0.73600
O12         O  0.53953481  0.10936745  0.24612861    -0.79300
O13         O  0.57127453  0.18705075  0.24334547    -0.77500
O14         O  0.61560312  0.15472184  0.22517541    -1.13600
O15         O  0.64586731  0.22891807  0.23465754    -0.72800
C16         C  0.67891830  0.24016108  0.22265779     0.97900
C17         C  0.60461867  0.07520147  0.21481199     0.94300
Al18       Al  0.57099178  0.12194003  0.20658908     1.55600
O19         O  0.67554225  0.15242460  0.25311675    -0.77400
C20         C  0.55693587  0.18299167  0.21563333     0.98500
C21         C  0.62506604  0.14668088  0.15087437     0.93300
O22         O  0.65340984  0.16633616  0.16853004    -0.82800
O23         O  0.83400785  0.33359954  0.48441733    -0.82200
C24         C  0.75194810  0.23574952  0.38749789     0.97100
O25         O  0.76913552  0.23478036  0.41235063    -0.71300
O26         O  0.82727716  0.27263504  0.45138477    -0.74900
Al27       Al  0.77411011  0.25990562  0.45265344     1.49000
C28         C  0.85354840  0.29419958  0.43125129     0.92400
O29         O  0.83353712  0.37381941  0.40219735    -0.81100
O30         O  0.75386817  0.35080908  0.42725615    -0.74700
Al31       Al  0.82799759  0.34760677  0.44182447     1.90100
O32         O  0.78502463  0.33225028  0.37408711    -0.73800
O33         O  0.70617322  0.27733885  0.43668276    -0.73600
O34         O  0.73954264  0.25907433  0.38535620    -0.79300
O35         O  0.71853995  0.23525328  0.45728801    -0.77500
O36         O  0.78327706  0.30404961  0.43406080    -1.13600
O37         O  0.77858716  0.28145334  0.49496668    -0.72800
C38         C  0.80896883  0.31093229  0.50476848     0.97900
C39         C  0.81602919  0.36392061  0.37595806     0.94300
Al40       Al  0.74909318  0.30474993  0.40814964     1.55600
O41         O  0.85670195  0.32580515  0.42221787    -0.77400
C42         C  0.69478729  0.24591325  0.45112369     0.98500
C43         C  0.77352038  0.37330756  0.44996539     0.93300
O44         O  0.80244258  0.37268234  0.46110046    -0.82800
O45         O  0.62605709  0.49888418  0.49026116    -0.82200
C46         C  0.73577378  0.54856564  0.38795984     0.97100
O47         O  0.74481895  0.55590095  0.41753124    -0.71300
O48         O  0.70420168  0.58468156  0.44104950    -0.74900
Al49       Al  0.71092540  0.54448185  0.45573728     1.49000
C50         C  0.67428240  0.58723351  0.44017327     0.92400
O51         O  0.61027969  0.50735742  0.40272006    -0.81100
O52         O  0.64007303  0.43398526  0.43178229    -0.74700
Al53       Al  0.62190884  0.50333345  0.44582962     1.90100
O54         O  0.62973578  0.47038952  0.38113734    -0.73800
O55         O  0.71510114  0.47813270  0.42546510    -0.73600
O56         O  0.70320524  0.52082330  0.38039079    -0.79300
O57         O  0.72210311  0.50647968  0.47232036    -0.77500
O58         O  0.66797762  0.50880545  0.43651114    -1.13600
O59         O  0.68670140  0.54218525  0.49734240    -0.72800
C60         C  0.65309687  0.51976452  0.50872207     0.97900
C61         C  0.61021625  0.48678874  0.37987730     0.94300
Al62       Al  0.67180029  0.47856343  0.40720721     1.55600
O63         O  0.64120028  0.55863518  0.44736555    -0.77400
C64         C  0.72647299  0.48335780  0.45427212     0.98500
C65         C  0.60559292  0.42215878  0.44034960     0.93300
O66         O  0.59415786  0.44631986  0.44467373    -0.82800
O67         O  0.46258964  0.27794247  0.21270729    -0.82200
C68         C  0.53023066  0.42364822  0.26726587     0.97100
O69         O  0.52280152  0.38994184  0.27391637    -0.71300
O70         O  0.48833745  0.31431919  0.27438010    -0.74900
Al71       Al  0.52233168  0.35395621  0.24451537     1.49000
C72         C  0.45290195  0.29905400  0.28126168     0.92400
O73         O  0.40972406  0.33667209  0.22036305    -0.81100
O74         O  0.47105656  0.37614472  0.16211700    -0.74700
Al75       Al  0.44048846  0.31168761  0.21678294     1.90100
O76         O  0.45291416  0.39856040  0.22065736    -0.73800
O77         O  0.54352279  0.40866719  0.18038715    -0.73600
O78         O  0.52552657  0.43235808  0.23886139    -0.79300
O79         O  0.56609288  0.39291360  0.22133367    -0.77500
O80         O  0.48639898  0.35515331  0.22097013    -1.13600
O81         O  0.52516197  0.31783108  0.21703609    -0.72800
C82         C  0.49725418  0.28496296  0.21011273     0.97900
C83         C  0.41862774  0.37147382  0.22482266     0.94300
Al84       Al  0.49695105  0.39981269  0.20211013     1.55600
O85         O  0.43078527  0.30203416  0.26201061    -0.77400
C86         C  0.57147346  0.40969712  0.19447955     0.98500
C87         C  0.45363929  0.34161688  0.15189072     0.93300
O88         O  0.44281102  0.31418428  0.17148444    -0.82800
O89         O  0.44919250  0.12478965  0.49022403    -0.82200
C90         C  0.42562152  0.20254011  0.38832469     0.97100
O91         O  0.41980366  0.20566138  0.41835831    -0.71300
O92         O  0.38013051  0.13977324  0.44989199    -0.74900
Al93       Al  0.42870353  0.18455272  0.45738083     1.49000
C94         C  0.36926410  0.10499899  0.44339596     0.92400
O95         O  0.44534696  0.10043430  0.40225369    -0.81100
O96         O  0.52900908  0.20009299  0.42820321    -0.74700
Al97       Al  0.44822520  0.11878719  0.44526933     1.90100
O98         O  0.48825060  0.15394496  0.37984781    -0.73800
O99         O  0.49743012  0.24227806  0.41787240    -0.73600
O100        O  0.44520504  0.18737422  0.37893826    -0.79300
O101        O  0.47477077  0.23374048  0.46718890    -0.77500
O102        O  0.45433617  0.16507392  0.43592803    -1.13600
O103        O  0.43301194  0.16780065  0.50027411    -0.72800
C104        C  0.44302636  0.14454200  0.51024255     0.97900
C105        C  0.46904668  0.11794417  0.37983700     0.94300
Al106      Al  0.48673506  0.19303171  0.40411099     1.55600
O107        O  0.39279769  0.09276884  0.44328143    -0.77400
C108        C  0.49722248  0.25601201  0.44516737     0.98500
C109        C  0.53251077  0.17485058  0.44354109     0.93300
O110        O  0.50411098  0.14042022  0.44777990    -0.82800
O111        O  0.75808391  0.52145162  0.20057083    -0.82200
C112        C  0.83437987  0.46454701  0.27195287     0.97100
O113        O  0.81330568  0.47895304  0.27789403    -0.71300
O114        O  0.77212496  0.51274200  0.27091408    -0.74900
Al115      Al  0.77433361  0.47230287  0.24941848     1.49000
C116        C  0.79422709  0.54851430  0.27085737     0.92400
O117        O  0.87097747  0.57180494  0.20814870    -0.81100
O118        O  0.83554959  0.49401802  0.15688007    -0.74700
Al119      Al  0.81478849  0.54421118  0.20565937     1.90100
O120        O  0.88352074  0.52459283  0.20901196    -0.73800
O121        O  0.79377077  0.42916828  0.19131135    -0.73600
O122        O  0.84351933  0.46114822  0.24286898    -0.79300
O123        O  0.76521853  0.42324917  0.23765704    -0.77500
O124        O  0.80892271  0.49893485  0.21838712    -1.13600
O125        O  0.73412296  0.46360515  0.22283690    -0.72800
C126        C  0.73046447  0.48642538  0.20443853     0.97900
C127        C  0.89472138  0.55994946  0.21081839     0.94300
Al128      Al  0.83698592  0.47947458  0.20126235     1.55600
O129        O  0.81709061  0.56463986  0.24765462    -0.77400
C130        C  0.77093056  0.40772581  0.21335126     0.98500
C131        C  0.82454409  0.51538950  0.14437930     0.93300
O132        O  0.81514355  0.53473842  0.16191861    -0.82800
O133        O  0.51565305  0.38907358  0.95358133    -0.82200
C134        C  0.45756463  0.24798984  0.89735064     0.97100
O135        O  0.48664778  0.28132961  0.89573334    -0.71300
O136        O  0.51807049  0.35473835  0.89777391    -0.74900
Al137      Al  0.51195602  0.31651898  0.92817517     1.49000
C138        C  0.49315468  0.36085743  0.88544028     0.92400
O139        O  0.40454222  0.32143522  0.94245538    -0.81100
O140        O  0.42490222  0.28348215  0.00087905    -0.74700
Al141      Al  0.46058182  0.34973551  0.94801314     1.90100
O142        O  0.39217360  0.26248121  0.94028190    -0.73800
O143        O  0.46617634  0.25163883  0.98446770    -0.73600
O144        O  0.43582576  0.23577033  0.92250617    -0.79300
O145        O  0.51641925  0.27903051  0.95219870    -0.77500
O146        O  0.46811386  0.30921265  0.94595936    -1.13600
O147        O  0.54188107  0.35322056  0.95965582    -0.72800
C148        C  0.54442772  0.38577315  0.96109846     0.97900
C149        C  0.38155916  0.28639478  0.93587183     0.94300
Al150      Al  0.43263888  0.26263473  0.96085347     1.55600
O151        O  0.46431843  0.35589946  0.90206271    -0.77400
C152        C  0.49757748  0.25546247  0.97447657     0.98500
C153        C  0.43904821  0.31759712  0.01210799     0.93300
O154        O  0.45587143  0.34661673  0.99357385    -0.82800
O155        O  0.65328631  0.52939791  0.66280156    -0.82200
C156        C  0.55683006  0.42713375  0.76222460     0.97100
O157        O  0.54493987  0.43746761  0.73812652    -0.71300
O158        O  0.57242406  0.51033690  0.72219055    -0.74900
Al159      Al  0.57129161  0.46895214  0.69975854     1.49000
C160        C  0.59753475  0.54528150  0.72548217     0.92400
O161        O  0.66989162  0.53437710  0.75263749    -0.81100
O162        O  0.66148108  0.45091775  0.69561901    -0.74700
Al163      Al  0.65942106  0.52943320  0.70759915     1.90100
O164        O  0.66631763  0.47841033  0.75753705    -0.73800
O165        O  0.58867177  0.40239088  0.70518462    -0.73600
O166        O  0.59124691  0.43452408  0.76326732    -0.79300
O167        O  0.56043421  0.42443405  0.67491719    -0.77500
O168        O  0.61863018  0.48103237  0.71202868    -1.13600
O169        O  0.58980106  0.49714149  0.65937549    -0.72800
C170        C  0.62324145  0.51629764  0.64633752     0.97900
C171        C  0.67678373  0.51177891  0.76816405     0.94300
Al172      Al  0.62632709  0.44492857  0.72880231     1.55600
O173        O  0.63191061  0.55698326  0.71629185    -0.77400
C174        C  0.56551810  0.39740751  0.68323045     0.98500
C175        C  0.69335152  0.48110554  0.68980531     0.93300
O176        O  0.69776382  0.51376213  0.69759483    -0.82800
O177        O  0.44408050  0.13901169  0.67076242    -0.82200
C178        C  0.55116782  0.14819120  0.75935564     0.97100
O179        O  0.52394078  0.12080394  0.74366741    -0.71300
O180        O  0.45732959  0.08617280  0.71069394    -0.74900
Al181      Al  0.50835146  0.12780602  0.70082003     1.49000
C182        C  0.42959794  0.08332441  0.72765073     0.92400
O183        O  0.45758829  0.18431165  0.75422888    -0.81100
O184        O  0.52960510  0.24445457  0.71284945    -0.74700
Al185      Al  0.45501252  0.16200973  0.71285385     1.90100
O186        O  0.51668260  0.20548555  0.77010087    -0.73800
O187        O  0.57258173  0.21768966  0.69173683    -0.73600
O188        O  0.56354414  0.18279163  0.75121780    -0.79300
O189        O  0.56165021  0.15891739  0.68685165    -0.77500
O190        O  0.50158042  0.16629113  0.71471416    -1.13600
O191        O  0.49381585  0.13267194  0.65769817    -0.72800
C192        C  0.46470310  0.13499283  0.64935834     0.97900
C193        C  0.48247069  0.19713143  0.77613574     0.94300
Al194      Al  0.54193446  0.20886885  0.73009695     1.55600
O195        O  0.42846017  0.11320370  0.73489566    -0.77400
C196        C  0.58272453  0.19459532  0.68117901     0.98500
C197        C  0.50360170  0.24211932  0.69505780     0.93300
O198        O  0.47339562  0.21012318  0.69060911    -0.82800
O199        O  0.58469071  0.16068386  0.95984566    -0.82200
C200        C  0.72173276  0.23755015  0.89092600     0.97100
O201        O  0.68713807  0.22930971  0.89010000    -0.71300
O202        O  0.61256332  0.18954824  0.89878434    -0.74900
Al203      Al  0.65530586  0.22461731  0.92514115     1.49000
C204        C  0.60390826  0.15650833  0.88826774     0.92400
O205        O  0.64702511  0.11308826  0.94429464    -0.81100
O206        O  0.69140456  0.17557761  0.99814438    -0.74700
Al207      Al  0.62088340  0.14214730  0.95058489     1.90100
O208        O  0.70726688  0.15783814  0.93591607    -0.73800
O209        O  0.72225748  0.24715484  0.97839815    -0.73600
O210        O  0.73489925  0.22953610  0.91568846    -0.79300
O211        O  0.69625919  0.26885701  0.94535730    -0.77500
O212        O  0.66234462  0.18923551  0.94395908    -1.13600
O213        O  0.62324638  0.22352282  0.95903780    -0.72800
C214        C  0.59183240  0.19439202  0.96774348     0.97900
C215        C  0.68124317  0.12300034  0.93598942     0.94300
Al216      Al  0.70965797  0.20098382  0.95595485     1.55600
O217        O  0.60934141  0.13408185  0.90556629    -0.77400
C218        C  0.71987087  0.27470347  0.96723799     0.98500
C219        C  0.65799385  0.15866014  0.01163503     0.93300
O220        O  0.62830898  0.14554154  0.99472611    -0.82800
O221        O  0.82764643  0.32492021  0.65995930    -0.82200
C222        C  0.83434946  0.41963222  0.76108374     0.97100
O223        O  0.85484339  0.43233876  0.73519383    -0.71300
O224        O  0.89384853  0.40343862  0.70940265    -0.74900
Al225      Al  0.85259077  0.40743529  0.69394546     1.49000
C226        C  0.89927705  0.37632367  0.71606900     0.92400
O227        O  0.81277082  0.30706480  0.74984837    -0.81100
O228        O  0.74110148  0.32210284  0.69472864    -0.74700
Al229      Al  0.81961142  0.31833590  0.70452293     1.90100
O230        O  0.76214126  0.31300910  0.75490309    -0.73800
O231        O  0.77066514  0.39615182  0.70715620    -0.73600
O232        O  0.80214364  0.38830224  0.76149609    -0.79300
O233        O  0.82058434  0.42408620  0.67497573    -0.77500
O234        O  0.81547751  0.36085166  0.70848650    -1.13600
O235        O  0.85382200  0.38737760  0.65147080    -0.72800
C236        C  0.84017135  0.35321421  0.64079027     0.97900
C237        C  0.78443536  0.30292565  0.76647307     0.94300
Al238      Al  0.77301254  0.35554637  0.72769317     1.55600
O239        O  0.87296787  0.34192582  0.71301245    -0.77400
C240        C  0.78943179  0.42033169  0.68538951     0.98500
C241        C  0.73853398  0.29015184  0.68770188     0.93300
O242        O  0.76556815  0.28405871  0.69480108    -0.82800
O243        O  0.82042877  0.45883525  0.95353674    -0.82200
C244        C  0.75158541  0.52321011  0.88525393     0.97100
O245        O  0.75652575  0.49455273  0.88363146    -0.71300
O246        O  0.79324113  0.45654794  0.89172169    -0.74900
Al247      Al  0.75811208  0.46535888  0.91768807     1.49000
C248        C  0.82807668  0.47827336  0.88316044     0.92400
O249        O  0.86935100  0.56875796  0.93540881    -0.81100
O250        O  0.80461840  0.54866389  0.99339217    -0.74700
Al251      Al  0.84025572  0.51364213  0.94350803     1.90100
O252        O  0.82504256  0.58487467  0.93301148    -0.73800
O253        O  0.73341314  0.50623079  0.97365883    -0.73600
O254        O  0.75502658  0.54094891  0.91181970    -0.79300
O255        O  0.71260358  0.46173038  0.93685762    -0.77500
O256        O  0.79326768  0.50755727  0.93777287    -1.13600
O257        O  0.75745260  0.43367988  0.95093223    -0.72800
C258        C  0.78615055  0.43171297  0.96018700     0.97900
C259        C  0.85950933  0.59328540  0.92930850     0.94300
Al260      Al  0.78092882  0.54233146  0.95183006     1.55600
O261        O  0.84913909  0.50838289  0.89886427    -0.77400
C262        C  0.70588185  0.47727640  0.96063636     0.98500
C263        C  0.82396058  0.53493369  0.00549705     0.93300
O264        O  0.83800954  0.51952435  0.98785727    -0.82800
O265        O  0.34898069  0.53369741  0.50533642    -0.82200
C266        C  0.21598988  0.46899433  0.58904432     0.97100
O267        O  0.23955663  0.50444019  0.58390913    -0.71300
O268        O  0.31118678  0.52553015  0.59379835    -0.74900
Al269      Al  0.28586945  0.53203072  0.55860367     1.49000
C270        C  0.34224698  0.52506861  0.59231222     0.92400
O271        O  0.30056208  0.43866012  0.55315561    -0.81100
O272        O  0.25027044  0.46198373  0.48206447    -0.74700
Al273      Al  0.32221201  0.48619979  0.52948260     1.90100
O274        O  0.24383117  0.41199425  0.53072586    -0.73800
O275        O  0.21199187  0.48629530  0.51932159    -0.73600
O276        O  0.21415138  0.44334175  0.56994421    -0.79300
O277        O  0.26091629  0.54432109  0.52635946    -0.77500
O278        O  0.28083516  0.49093712  0.53820228    -1.13600
O279        O  0.33327564  0.56771179  0.53748803    -0.72800
C280        C  0.35435956  0.56589388  0.51527172     0.97900
C281        C  0.26848229  0.40905066  0.54699223     0.94300
Al282      Al  0.23403590  0.45380802  0.52626253     1.55600
O283        O  0.35084340  0.51218266  0.56758687    -0.77400
C284        C  0.22672933  0.52248968  0.51743071     0.98500
C285        C  0.27927198  0.46132816  0.47028757     0.93300
O286        O  0.30353536  0.46032574  0.48866090    -0.82800
O287        O  0.13140749  0.47823352  0.81754982    -0.82200
C288        C  0.09658471  0.55394226  0.72096770     0.97100
O289        O  0.08908318  0.55443334  0.75096675    -0.71300
O290        O  0.05386987  0.48357146  0.77280416    -0.74900
Al291      Al  0.09695999  0.52854574  0.78748748     1.49000
C292        C  0.04782893  0.44984482  0.76895070     0.92400
O293        O  0.12808050  0.46072045  0.72792201    -0.81100
O294        O  0.20531754  0.56067267  0.76197165    -0.74700
Al295      Al  0.12981049  0.47392574  0.77238353     1.90100
O296        O  0.16842537  0.51808668  0.70917753    -0.73800
O297        O  0.16652690  0.59663939  0.75785757    -0.73600
O298        O  0.12192329  0.54604161  0.71164834    -0.79300
O299        O  0.13793967  0.57601121  0.80502172    -0.77500
O300        O  0.12961575  0.51780846  0.76601528    -1.13600
O301        O  0.09654358  0.50443246  0.82757899    -0.72800
C302        C  0.11352051  0.48732344  0.83743039     0.97900
C303        C  0.15010692  0.48210612  0.70573454     0.94300
Al304      Al  0.16259728  0.55225895  0.73764994     1.55600
O305        O  0.07434401  0.44188005  0.77198696    -0.77400
C306        C  0.16275768  0.60289345  0.78720864     0.98500
C307        C  0.21208226  0.53518179  0.77216363     0.93300
O308        O  0.18585152  0.49966723  0.77343640    -0.82800
O309        O  0.29569432  0.84421310  0.82177483    -0.82200
C310        C  0.40342933  0.87344453  0.72005915     0.97100
O311        O  0.41252027  0.88801573  0.74823837    -0.71300
O312        O  0.37477445  0.92275733  0.76872034    -0.74900
Al313      Al  0.38039581  0.88334052  0.78654249     1.49000
C314        C  0.34592135  0.92699248  0.76741979     0.92400
O315        O  0.27916134  0.84208428  0.73196283    -0.81100
O316        O  0.30726136  0.77221166  0.77382727    -0.74700
Al317      Al  0.29110318  0.84350632  0.77686249     1.90100
O318        O  0.29446483  0.79913052  0.71803280    -0.73800
O319        O  0.38182735  0.81245200  0.76419614    -0.73600
O320        O  0.36895695  0.84892193  0.71377482    -0.79300
O321        O  0.39268566  0.84831167  0.80704413    -0.77500
O322        O  0.33638530  0.84626060  0.76956020    -1.13600
O323        O  0.35728979  0.88510248  0.82772518    -0.72800
C324        C  0.32349483  0.86473420  0.83970158     0.97900
C325        C  0.27650292  0.81657147  0.71261848     0.94300
Al326      Al  0.33793384  0.81124523  0.74458157     1.55600
O327        O  0.31209249  0.89925784  0.77394407    -0.77400
C328        C  0.39852409  0.82502781  0.79081006     0.98500
C329        C  0.27353323  0.76230773  0.78305868     0.93300
O330        O  0.26192120  0.78657825  0.78155938    -0.82800
O331        O  0.12411369  0.61117053  0.51815284    -0.82200
C332        C  0.19428399  0.74548409  0.59859926     0.97100
O333        O  0.19957788  0.71717624  0.59766693    -0.71300
O334        O  0.13950830  0.64968329  0.60784273    -0.74900
Al335      Al  0.17785739  0.66975272  0.57473455     1.49000
C336        C  0.10559463  0.62164278  0.60542287     0.92400
O337        O  0.07625355  0.66449668  0.55592510    -0.81100
O338        O  0.15886508  0.71083241  0.48984473    -0.74700
Al339      Al  0.10219253  0.63975118  0.53771458     1.90100
O340        O  0.11611759  0.72341991  0.53773765    -0.73800
O341        O  0.21905529  0.74091944  0.52876738    -0.73600
O342        O  0.17611742  0.75053721  0.57638948    -0.79300
O343        O  0.22014236  0.68952494  0.54488886    -0.77500
O344        O  0.14874796  0.67910133  0.54883613    -1.13600
O345        O  0.16303784  0.61968280  0.55779595    -0.72800
C346        C  0.14735284  0.60339830  0.53164147     0.97900
C347        C  0.08483609  0.69916625  0.55191251     0.94300
Al348      Al  0.16581441  0.72709732  0.53406201     1.55600
O349        O  0.09039283  0.61155798  0.57798948    -0.77400
C350        C  0.23703283  0.72307800  0.53294778     0.98500
C351        C  0.12919028  0.68309663  0.47749498     0.93300
O352        O  0.10233483  0.65803481  0.49515054    -0.82800
O353        O  0.50129800  0.68838186  0.81784687    -0.82200
C354        C  0.43087635  0.61430454  0.70085811     0.97100
O355        O  0.42857577  0.59635500  0.72704277    -0.71300
O356        O  0.49236808  0.61335442  0.75711217    -0.74900
Al357      Al  0.44831172  0.61453830  0.77100747     1.49000
C358        C  0.52770602  0.63566400  0.76190535     0.92400
O359        O  0.53358487  0.71659505  0.73108860    -0.81100
O360        O  0.43696563  0.70668759  0.77039375    -0.74700
Al361      Al  0.51467568  0.70069510  0.77420448     1.90100
O362        O  0.48494856  0.72261032  0.71690106    -0.73800
O363        O  0.39016568  0.63652861  0.74773640    -0.73600
O364        O  0.44421625  0.65011395  0.70137012    -0.79300
O365        O  0.39956803  0.60645497  0.78671874    -0.77500
O366        O  0.46812722  0.66403091  0.76091257    -1.13600
O367        O  0.46470954  0.62508964  0.81619945    -0.72800
C368        C  0.48311113  0.65629671  0.83225134     0.97900
C369        C  0.51789191  0.72711898  0.71077441     0.94300
Al370      Al  0.44143094  0.67793398  0.73647706     1.55600
O371        O  0.53967184  0.66980886  0.77151972    -0.77400
C372        C  0.37679071  0.61135771  0.76979651     0.98500
C373        C  0.46541904  0.73536591  0.78311322     0.93300
O374        O  0.49919790  0.73984815  0.78067320    -0.82800
O375        O  0.42917803  0.82327922  0.52628593    -0.82200
C376        C  0.52472088  0.77662617  0.58767997     0.97100
O377        O  0.48841044  0.76021461  0.58974035    -0.71300
O378        O  0.46326915  0.80532591  0.60801715    -0.74900
Al379      Al  0.45163707  0.77139642  0.57255427     1.49000
C380        C  0.46278028  0.83630211  0.60947093     0.92400
O381        O  0.53400063  0.88306292  0.55535196    -0.81100
O382        O  0.50302842  0.80834799  0.48290421    -0.74700
Al383      Al  0.48208877  0.85122684  0.54046940     1.90100
O384        O  0.55964018  0.85652192  0.52544107    -0.73800
O385        O  0.49089584  0.74771187  0.51881474    -0.73600
O386        O  0.54303166  0.79806636  0.56377097    -0.79300
O387        O  0.43493096  0.73184720  0.54109725    -0.77500
O388        O  0.48452720  0.80827207  0.54568436    -1.13600
O389        O  0.40858138  0.77552003  0.56125173    -0.72800
C390        C  0.40179554  0.79468418  0.54119016     0.97900
C391        C  0.56355176  0.88259945  0.54486642     0.94300
Al392      Al  0.52092810  0.80305761  0.52438564     1.55600
O393        O  0.46573010  0.85422402  0.58368752    -0.77400
C394        C  0.45582212  0.72309128  0.52433348     0.98500
C395        C  0.49910081  0.83638164  0.47431845     0.93300
O396        O  0.49759086  0.85848869  0.49554760    -0.82800
O397        O  0.32124406  0.85888569  0.99899232    -0.82200
C398        C  0.20679311  0.77922278  0.09542580     0.97100
O399        O  0.19998457  0.78182264  0.06601898    -0.71300
O400        O  0.23648055  0.85221618  0.04394562    -0.74900
Al401      Al  0.23439729  0.80705013  0.02923130     1.49000
C402        C  0.26398257  0.88595096  0.04831819     0.92400
O403        O  0.33089070  0.87321353  0.08919651    -0.81100
O404        O  0.31177125  0.77564452  0.05098218    -0.74700
Al405      Al  0.32207278  0.86194926  0.04438930     1.90100
O406        O  0.31414658  0.81540841  0.10574306    -0.73800
O407        O  0.23575530  0.73705001  0.05553697    -0.73600
O408        O  0.23913454  0.78463881  0.10387991    -0.79300
O409        O  0.22558130  0.75934749  0.01120134    -0.77500
O410        O  0.27740454  0.81710040  0.04988567    -1.13600
O411        O  0.25981773  0.83012521  0.98887581    -0.72800
C412        C  0.29458824  0.84725847  0.97902970     0.97900
C413        C  0.33046907  0.85115424  0.11067346     0.94300
Al414      Al  0.27544955  0.78149452  0.07656504     1.55600
O415        O  0.29872342  0.89389328  0.04601420    -0.77400
C416        C  0.22173351  0.73145281  0.02778637     0.98500
C417        C  0.34485095  0.80232659  0.04186285     0.93300
O418        O  0.35344869  0.83751252  0.04211205    -0.82800
O419        O  0.47052952  0.79520470  0.29533332    -0.82200
C420        C  0.40348398  0.86840882  0.22900642     0.97100
O421        O  0.38742107  0.83288747  0.23608842    -0.71300
O422        O  0.42837212  0.80321997  0.21814396    -0.74900
Al423      Al  0.40392728  0.80245506  0.25747621     1.49000
C424        C  0.46083931  0.80742003  0.21134272     0.92400
O425        O  0.51851050  0.89241259  0.25273832    -0.81100
O426        O  0.45205359  0.87218290  0.33092332    -0.74700
Al427      Al  0.49079069  0.84381809  0.27445427     1.90100
O428        O  0.49535699  0.92195946  0.28138219    -0.73800
O429        O  0.38731702  0.85512332  0.29910979    -0.73600
O430        O  0.43125489  0.89383352  0.24556380    -0.79300
O431        O  0.37267526  0.79543686  0.29517564    -0.77500
O432        O  0.44570027  0.84261233  0.27319266    -1.13600
O433        O  0.41276905  0.76480786  0.27481653    -0.72800
C434        C  0.43909128  0.76461185  0.29049621     0.97900
C435        C  0.52057981  0.92321913  0.26200272     0.94300
Al436      Al  0.44215780  0.88256064  0.28823885     1.55600
O437        O  0.48700780  0.82118202  0.23229453    -0.77400
C438        C  0.36293987  0.81973300  0.30287139     0.98500
C439        C  0.47957872  0.86742339  0.33933714     0.93300
O440        O  0.50181480  0.86559650  0.31777929    -0.82800
O441        O  0.17151211  0.72808804  0.29934865    -0.82200
C442        C  0.11762260  0.59393919  0.21975531     0.97100
O443        O  0.15149123  0.62244247  0.22196886    -0.71300
O444        O  0.15674999  0.68810744  0.21051123    -0.74900
Al445      Al  0.17397051  0.67086559  0.24441267     1.49000
C446        C  0.14675678  0.71310180  0.21114706     0.92400
O447        O  0.07340124  0.67075886  0.25937869    -0.81100
O448        O  0.10982574  0.62859348  0.32679770    -0.74700
Al449      Al  0.12271164  0.69744594  0.27865363     1.90100
O450        O  0.05458698  0.61302144  0.27900461    -0.73800
O451        O  0.14333907  0.59925797  0.28775073    -0.73600
O452        O  0.09164076  0.58952751  0.23998265    -0.79300
O453        O  0.19528241  0.65390512  0.27605160    -0.77500
O454        O  0.13279131  0.65985727  0.26852202    -1.13600
O455        O  0.20660375  0.72180450  0.26122203    -0.72800
C456        C  0.20416160  0.73687379  0.28741967     0.97900
C457        C  0.04738919  0.63603335  0.26387292     0.94300
Al458      Al  0.10214954  0.61168809  0.28271423     1.55600
O459        O  0.14091530  0.72509582  0.23785793    -0.77400
C460        C  0.17998848  0.61930714  0.28498125     0.98500
C461        C  0.10603065  0.65544124  0.33924671     0.93300
O462        O  0.10190062  0.67820805  0.32115817    -0.82800
O463        O  0.10905547  0.48746767  0.99477612    -0.82200
C464        C  0.19395747  0.46988541  0.09235732     0.97100
O465        O  0.18790864  0.45363496  0.06489755    -0.71300
O466        O  0.11569837  0.41530829  0.04846194    -0.74900
Al467      Al  0.15961461  0.45495281  0.02786966     1.49000
C468        C  0.08211974  0.40950253  0.05203268     0.92400
O469        O  0.09923133  0.49476400  0.08504917    -0.81100
O470        O  0.19390473  0.56689036  0.03547727    -0.74700
Al471      Al  0.10727506  0.49101077  0.03976766     1.90100
O472        O  0.15785143  0.54147084  0.09404672    -0.73800
O473        O  0.23207197  0.53011327  0.04461841    -0.73600
O474        O  0.18689698  0.49657017  0.09797646    -0.79300
O475        O  0.20642316  0.48956619  0.00478393    -0.77500
O476        O  0.15188544  0.49191572  0.04432352    -1.13600
O477        O  0.13318575  0.44986751  0.98796446    -0.72800
C478        C  0.11762421  0.46779282  0.97650791     0.97900
C479        C  0.12292037  0.52160260  0.10274416     0.94300
Al480      Al  0.18936953  0.53043827  0.06601924     1.55600
O481        O  0.07440660  0.43560047  0.04564459    -0.77400
C482        C  0.23587474  0.51493704  0.01907766     0.98500
C483        C  0.16709995  0.57281712  0.02783365     0.93300
O484        O  0.13190932  0.54675625  0.03274691    -0.82800
O485        O  0.47672758  0.64468685  0.98968850    -0.82200
C486        C  0.48102066  0.73566981  0.09710232     0.97100
O487        O  0.49504531  0.74902651  0.06909629    -0.71300
O488        O  0.54256730  0.72742158  0.04665047    -0.74900
Al489      Al  0.49806099  0.72364364  0.02930608     1.49000
C490        C  0.55543085  0.70472934  0.04553972     0.92400
O491        O  0.47915037  0.62515087  0.07834792    -0.81100
O492        O  0.39333135  0.63160141  0.04060265    -0.74700
Al493      Al  0.47724430  0.63763126  0.03449122     1.90100
O494        O  0.42696988  0.62471505  0.09469217    -0.73800
O495        O  0.41876799  0.70472529  0.05297364    -0.73600
O496        O  0.46066870  0.69977784  0.10196499    -0.79300
O497        O  0.45689125  0.72725036  0.01043827    -0.77500
O498        O  0.46793625  0.67568693  0.04439721    -1.13600
O499        O  0.50627097  0.70770390  0.98644306    -0.72800
C500        C  0.49196560  0.67493380  0.97283741     0.97900
C501        C  0.45308737  0.61680256  0.09932957     0.94300
Al502      Al  0.42814828  0.66576272  0.07023812     1.55600
O503        O  0.53371610  0.66974357  0.03713511    -0.77400
C504        C  0.42995801  0.72560664  0.02780567     0.98500
C505        C  0.39287770  0.60272816  0.02798265     0.93300
O506        O  0.42206756  0.59826334  0.02971832    -0.82800
O507        O  0.26223664  0.50837508  0.28644334    -0.82200
C508        C  0.40660202  0.56164294  0.22157231     0.97100
O509        O  0.38538405  0.57626392  0.22140759    -0.71300
O510        O  0.31765273  0.52219242  0.20209586    -0.74900
Al511      Al  0.33403998  0.55748958  0.23665034     1.49000
C512        C  0.28476171  0.49225120  0.20131120     0.92400
O513        O  0.30729483  0.44761339  0.25607810    -0.81100
O514        O  0.35118534  0.52473411  0.32557605    -0.74700
Al515      Al  0.28659830  0.47940256  0.27085481     1.90100
O516        O  0.36210519  0.47816837  0.28192917    -0.73800
O517        O  0.39490886  0.58596550  0.28948045    -0.73600
O518        O  0.40233661  0.53789901  0.24338079    -0.79300
O519        O  0.35062572  0.59580982  0.26883895    -0.77500
O520        O  0.33170210  0.52257546  0.26390999    -1.13600
O521        O  0.28306932  0.54755383  0.24496935    -0.72800
C522        C  0.26255912  0.53543951  0.27045798     0.97900
C523        C  0.33842177  0.44989023  0.26501547     0.94300
Al524      Al  0.37418447  0.53098690  0.28361822     1.55600
O525        O  0.26774259  0.47566576  0.22758802    -0.77400
C526        C  0.37973333  0.60678024  0.28626907     0.98500
C527        C  0.31949123  0.49632780  0.33509868     0.93300
O528        O  0.29519499  0.47338143  0.31516506    -0.82800
O529        O  0.98536018  0.19412910  0.32799839    -0.82200
C530        C  0.88882710  0.10328613  0.43262590     0.97100
O531        O  0.87861241  0.10457179  0.40398051    -0.71300
O532        O  0.90206535  0.17351651  0.37963751    -0.74900
Al533      Al  0.90636466  0.13156913  0.36463193     1.49000
C534        C  0.92535830  0.20905217  0.38332995     0.92400
O535        O  0.00866300  0.21294948  0.41698822    -0.81100
O536        O  0.99720851  0.11966099  0.37844357    -0.74700
Al537      Al  0.99274834  0.19853639  0.37290996     1.90100
O538        O  0.00095283  0.15837053  0.43355609    -0.73800
O539        O  0.92520215  0.07389120  0.39014696    -0.73600
O540        O  0.92419049  0.11743505  0.43916473    -0.79300
O541        O  0.90362280  0.08550143  0.34663476    -0.77500
O542        O  0.95354522  0.15061419  0.38174362    -1.13600
O543        O  0.92380547  0.15377759  0.32225461    -0.72800
C544        C  0.95672650  0.17637494  0.31015500     0.97900
C545        C  0.01494701  0.19386703  0.43738690     0.94300
Al546      Al  0.96135133  0.12040377  0.40792712     1.55600
O547        O  0.96151480  0.22263707  0.37980718    -0.77400
C548        C  0.90808475  0.06240468  0.36385771     0.98500
C549        C  0.02477686  0.14693818  0.36281062     0.93300
O550        O  0.02981037  0.18099802  0.36362294    -0.82800
O551        O  0.14140670  0.12768459  0.62914640    -0.82200
C552        C  0.08133204  0.20574128  0.55800648     0.97100
O553        O  0.06548043  0.16965016  0.56230970    -0.71300
O554        O  0.11183667  0.14581651  0.54777838    -0.74900
Al555      Al  0.08138162  0.13811076  0.58413646     1.49000
C556        C  0.14548519  0.15177627  0.54362672     0.92400
O557        O  0.19300014  0.22871210  0.59211893    -0.81100
O558        O  0.11695670  0.20068374  0.66365297    -0.74700
Al559      Al  0.16420854  0.17842519  0.61031452     1.90100
O560        O  0.16454655  0.25459083  0.61909242    -0.73800
O561        O  0.05579841  0.18336245  0.62651051    -0.73600
O562        O  0.10577302  0.22926409  0.57793497    -0.79300
O563        O  0.04621045  0.12562674  0.61911847    -0.77500
O564        O  0.11924581  0.17664011  0.60495218    -1.13600
O565        O  0.08909789  0.09890286  0.60041387    -0.72800
C566        C  0.11114042  0.09742202  0.62071512     0.97900
C567        C  0.19205196  0.25810456  0.60144425     0.94300
Al568      Al  0.11162721  0.21392970  0.62081788     1.55600
O569        O  0.16745910  0.16022390  0.56748855    -0.77400
C570        C  0.03345351  0.14724444  0.62705847     0.98500
C571        C  0.14523460  0.19823750  0.67372695     0.93300
O572        O  0.16922975  0.19697153  0.65394447    -0.82800
O573        O  0.14504461  0.98464068  0.32477039    -0.82200
C574        C  0.15221935  0.08595508  0.42354340     0.97100
O575        O  0.17256138  0.09646109  0.39769222    -0.71300
O576        O  0.21342669  0.06484247  0.38250534    -0.74900
Al577      Al  0.17459142  0.06754391  0.36028368     1.49000
C578        C  0.22102993  0.03828478  0.38437635     0.92400
O579        O  0.13998338  0.96833750  0.41383340    -0.81100
O580        O  0.06217475  0.97955362  0.36740080    -0.74700
Al581      Al  0.14210460  0.97884984  0.36926874     1.90100
O582        O  0.09225912  0.97764181  0.42696861    -0.73800
O583        O  0.09246302  0.05402167  0.37164323    -0.73600
O584        O  0.12541226  0.05181750  0.42735739    -0.79300
O585        O  0.14090159  0.07894299  0.33685393    -0.77500
O586        O  0.13776481  0.02098751  0.37513013    -1.13600
O587        O  0.18298115  0.04714415  0.31942357    -0.72800
C588        C  0.16519285  0.01354488  0.30698465     0.97900
C589        C  0.11537129  0.96623734  0.43414449     0.94300
Al590      Al  0.09659840  0.01594103  0.39625882     1.55600
O591        O  0.19778440  0.00498423  0.37367787    -0.77400
C592        C  0.11043674  0.07658163  0.34823363     0.98500
C593        C  0.05890571  0.94795624  0.35914466     0.93300
O594        O  0.08674647  0.94213940  0.36350332    -0.82800
O595        O  0.84345089  0.03991782  0.62973938    -0.82200
C596        C  0.76597941  0.89761512  0.55913370     0.97100
O597        O  0.80132157  0.92223251  0.55996201    -0.71300
O598        O  0.81293965  0.99005080  0.54500980    -0.74900
Al599      Al  0.82987310  0.97152704  0.57886493     1.49000
C600        C  0.81062478  0.02027106  0.54527542     0.92400
O601        O  0.74002015  0.98816520  0.59929385    -0.81100
O602        O  0.77061912  0.94102989  0.66553335    -0.74700
Al603      Al  0.79110244  0.01091875  0.61444529     1.90100
O604        O  0.71535202  0.93000906  0.62005914    -0.73800
O605        O  0.79522830  0.90444223  0.62802642    -0.73600
O606        O  0.74299766  0.89725505  0.58065804    -0.79300
O607        O  0.85007850  0.95312545  0.61020458    -0.77500
O608        O  0.79330900  0.96820662  0.60546663    -1.13600
O609        O  0.86792655  0.02152810  0.59079684    -0.72800
C610        C  0.87226838  0.04489994  0.61286281     0.97900
C611        C  0.71151515  0.95501186  0.60479129     0.94300
Al612      Al  0.75883821  0.92217241  0.62238209     1.55600
O613        O  0.80698535  0.03391346  0.57187663    -0.77400
C614        C  0.83175035  0.92150091  0.62534043     0.98500
C615        C  0.77372751  0.97163135  0.67701113     0.93300
O616        O  0.77489828  0.99727566  0.65870748    -0.82800
O617        O  0.78245169  0.81984100  0.33044858    -0.82200
C618        C  0.85201804  0.78228051  0.43102318     0.97100
O619        O  0.85058996  0.77141167  0.40175112    -0.71300
O620        O  0.77844760  0.73815162  0.38190793    -0.74900
Al621      Al  0.82466116  0.77820989  0.36429266     1.49000
C622        C  0.74543958  0.73441368  0.38435608     0.92400
O623        O  0.76037798  0.81564497  0.41974113    -0.81100
O624        O  0.86295555  0.88723924  0.38381965    -0.74700
Al625      Al  0.77507545  0.81750821  0.37552504     1.90100
O626        O  0.81768844  0.85510680  0.43781279    -0.73800
O627        O  0.89562206  0.84694514  0.39023702    -0.73600
O628        O  0.84124390  0.80572378  0.43851777    -0.79300
O629        O  0.87309106  0.81569452  0.34491544    -0.77500
O630        O  0.81669232  0.81379474  0.38310774    -1.13600
O631        O  0.80140297  0.77798248  0.32325355    -0.72800
C632        C  0.79009417  0.79972196  0.31182848     0.97900
C633        C  0.78155070  0.83751894  0.44150830     0.94300
Al634      Al  0.85127760  0.84594015  0.41032549     1.55600
O635        O  0.73968698  0.76169012  0.37666220    -0.77400
C636        C  0.90118696  0.83965857  0.36149722     0.98500
C637        C  0.84061714  0.89856988  0.37532376     0.93300
O638        O  0.80429592  0.87478797  0.37398116    -0.82800
O639        O  0.92537983  0.82547637  0.62887889    -0.82200
C640        C  0.06559378  0.89635982  0.55470422     0.97100
O641        O  0.03980217  0.90526537  0.55696289    -0.71300
O642        O  0.97113487  0.85095666  0.54172371    -0.74900
Al643      Al  0.99130703  0.88457613  0.57753841     1.49000
C644        C  0.94249603  0.81712037  0.54155689     0.92400
O645        O  0.97738253  0.77689167  0.59001517    -0.81100
O646        O  0.02083078  0.85361840  0.66009177    -0.74700
Al647      Al  0.95365785  0.80366209  0.60897523     1.90100
O648        O  0.03337824  0.81101468  0.61296395    -0.73800
O649        O  0.05991570  0.91600342  0.62376655    -0.73600
O650        O  0.06645641  0.87294131  0.57456773    -0.79300
O651        O  0.01156264  0.92301647  0.61048349    -0.77500
O652        O  0.99541506  0.85008419  0.60092473    -1.13600
O653        O  0.94174807  0.87151259  0.59308617    -0.72800
C654        C  0.92178857  0.85243068  0.61725569     0.97900
C655        C  0.00999331  0.78170969  0.59689744     0.94300
Al656      Al  0.04113693  0.86201842  0.61676210     1.55600
O657        O  0.93016998  0.79828759  0.56774533    -0.77400
C658        C  0.04455493  0.93660362  0.62261026     0.98500
C659        C  0.99081773  0.82439403  0.67132193     0.93300
O660        O  0.96758724  0.79881326  0.65214234    -0.82800
O661        O  0.00142212  0.88767471  0.87132964    -0.82200
C662        C  0.86061399  0.78042138  0.92969228     0.97100
O663        O  0.89364700  0.80629673  0.93810106    -0.71300
O664        O  0.96635160  0.86005517  0.93891828    -0.74900
Al665      Al  0.92397976  0.84983563  0.91198083     1.49000
C666        C  0.98966634  0.84788392  0.93936842     0.92400
O667        O  0.96141866  0.77530964  0.87295121    -0.81100
O668        O  0.91369626  0.78664276  0.82118232    -0.74700
Al669      Al  0.97806935  0.83077876  0.87241972     1.90100
O670        O  0.89779075  0.74627721  0.87829883    -0.73800
O671        O  0.87619525  0.82055401  0.84540200    -0.73600
O672        O  0.85329225  0.77249026  0.89993566    -0.79300
O673        O  0.87957271  0.84775187  0.89246721    -0.77500
O674        O  0.93074139  0.82175357  0.88226929    -1.13600
O675        O  0.95349205  0.89502875  0.88844741    -0.72800
C676        C  0.98675646  0.90912836  0.87618216     0.97900
C677        C  0.92862564  0.74539890  0.87947475     0.94300
Al678      Al  0.88889065  0.78446871  0.86268876     1.55600
O679        O  0.99325099  0.83075606  0.91535991    -0.77400
C680        C  0.86883261  0.84169606  0.86337496     0.98500
C681        C  0.94654821  0.81014705  0.80917104     0.93300
O682        O  0.97264713  0.83295903  0.82762633    -0.82800
O683        O  0.16694001  0.00040942  0.14886576    -0.82200
C684        C  0.06705429  0.90326772  0.05675844     0.97100
O685        O  0.09339245  0.90373814  0.07368649    -0.71300
O686        O  0.15663154  0.93604033  0.11037865    -0.74900
Al687      Al  0.10486537  0.92476672  0.11697395     1.49000
C688        C  0.18385382  0.96045118  0.09281747     0.92400
O689        O  0.15679422  0.03328197  0.06518316    -0.81100
O690        O  0.08160557  0.01747452  0.10789003    -0.74700
Al691      Al  0.15787905  0.01305443  0.10637308     1.90100
O692        O  0.09737129  0.99667266  0.04946123    -0.73800
O693        O  0.03781916  0.94517685  0.12456606    -0.73600
O694        O  0.05261062  0.92402498  0.06407922    -0.79300
O695        O  0.05048086  0.89881669  0.12732178    -0.77500
O696        O  0.11132059  0.96998864  0.10359204    -1.13600
O697        O  0.11569431  0.94368293  0.16032039    -0.72800
C698        C  0.14489970  0.97500412  0.16948575     0.97900
C699        C  0.13163408  0.02332773  0.04383074     0.94300
Al700      Al  0.07094965  0.97090396  0.08791178     1.55600
O701        O  0.18448122  0.99079262  0.08447638    -0.77400
C702        C  0.02735805  0.91084469  0.13189330     0.98500
C703        C  0.10834917  0.04319963  0.12440100     0.93300
O704        O  0.13946098  0.04328842  0.12792556    -0.82800
O705        O  0.10490233  0.19509949  0.84990139    -0.82200
C706        C  0.14159291  0.10209740  0.92627634     0.97100
O707        O  0.10964583  0.10062673  0.92428139    -0.71300
O708        O  0.11540298  0.16647508  0.93877543    -0.74900
Al709      Al  0.09380315  0.13250882  0.90388500     1.49000
C710        C  0.12850809  0.20242706  0.93831486     0.92400
O711        O  0.20244105  0.22607662  0.89031887    -0.81100
O712        O  0.15510228  0.14766116  0.82113459    -0.74700
Al713      Al  0.15288549  0.20884839  0.87088018     1.90100
O714        O  0.21159267  0.18192523  0.86765573    -0.73800
O715        O  0.11616050  0.08610187  0.85863515    -0.73600
O716        O  0.16897173  0.12245436  0.90665582    -0.79300
O717        O  0.06836041  0.09557039  0.87069003    -0.77500
O718        O  0.13618515  0.15936783  0.87993983    -1.13600
O719        O  0.06788975  0.15810626  0.88947320    -0.72800
C720        C  0.07166989  0.17422652  0.86256611     0.97900
C721        C  0.22453801  0.21280415  0.88378152     0.94300
Al722      Al  0.16118988  0.13664946  0.86447026     1.55600
O723        O  0.13683406  0.22073669  0.91179973    -0.77400
C724        C  0.08029375  0.07392906  0.85973039     0.98500
C725        C  0.16408202  0.18030463  0.80984297     0.93300
O726        O  0.17259162  0.20841829  0.82851809    -0.82800
O727        O  0.79648860  0.95397825  0.85936458    -0.82200
C728        C  0.87770863  0.10015255  0.91819912     0.97100
O729        O  0.88972566  0.07716270  0.91161019    -0.71300
O730        O  0.84662619  0.00628486  0.92953116    -0.74900
Al731      Al  0.87036475  0.02987626  0.88964066     1.49000
C732        C  0.81240184  0.98460797  0.93921507     0.92400
O733        O  0.75746766  0.01566690  0.89654671    -0.81100
O734        O  0.82218915  0.05218742  0.81746061    -0.74700
Al735      Al  0.78166521  0.98924618  0.87712688     1.90100
O736        O  0.78535035  0.06735169  0.86704879    -0.73800
O737        O  0.88983577  0.09974150  0.84742653    -0.73600
O738        O  0.85122425  0.10032423  0.90174514    -0.79300
O739        O  0.90257405  0.05380845  0.85194417    -0.77500
O740        O  0.82931073  0.03109161  0.87558384    -1.13600
O741        O  0.85776982  0.98247048  0.87078173    -0.72800
C742        C  0.82807719  0.95432261  0.85928141     0.97900
C743        C  0.75884958  0.04580313  0.88654472     0.94300
Al744      Al  0.83617357  0.07553154  0.85957991     1.55600
O745        O  0.78491518  0.97537217  0.92024443    -0.77400
C746        C  0.91331389  0.08802108  0.84395912     0.98500
C747        C  0.79265738  0.01952592  0.81091853     0.93300
O748        O  0.77109645  0.99663515  0.83323859    -0.82800
O749        O  0.96739719  0.19103161  0.15196151    -0.82200
C750        C  0.07659301  0.21080746  0.05794869     0.97100
O751        O  0.07275127  0.23200701  0.07857602    -0.71300
O752        O  0.03344242  0.25314075  0.11678839    -0.74900
Al753      Al  0.04637559  0.21348675  0.11931575     1.49000
C754        C  0.00922652  0.25630224  0.10019163     0.92400
O755        O  0.93979138  0.15807732  0.06321720    -0.81100
O756        O  0.95630803  0.09843629  0.09059536    -0.74700
Al757      Al  0.95827906  0.17504701  0.10691772     1.90100
O758        O  0.98530250  0.15088711  0.04069495    -0.73800
O759        O  0.02522554  0.12548452  0.11149576    -0.73600
O760        O  0.05532875  0.17445585  0.05918613    -0.79300
O761        O  0.07053327  0.18266622  0.12654097    -0.77500
O762        O  0.00315775  0.17627594  0.10114453    -1.13600
O763        O  0.02435174  0.19862395  0.16107045    -0.72800
C764        C  0.99227965  0.19303870  0.17161432     0.97900
C765        C  0.95529361  0.15292743  0.03806353     0.94300
Al766      Al  0.00534771  0.14045734  0.07751892     1.55600
O767        O  0.97914402  0.22651104  0.09077520    -0.77400
C768        C  0.05655245  0.14651572  0.12556888     0.98500
C769        C  0.93167806  0.09431131  0.11195060     0.93300
O770        O  0.93141759  0.12328360  0.12358391    -0.82800
O771        O  0.78602450  0.80234499  0.15637414    -0.82200
C772        C  0.78602587  0.89440510  0.05304758     0.97100
O773        O  0.77063051  0.89142112  0.08086662    -0.71300
O774        O  0.72142141  0.82064824  0.10196377    -0.74900
Al775      Al  0.76686084  0.86185529  0.11957904     1.49000
C776        C  0.70867940  0.78481001  0.10036571     0.92400
O777        O  0.78286530  0.78081677  0.06805325    -0.81100
O778        O  0.87086595  0.87186760  0.10685436    -0.74700
Al779      Al  0.78518872  0.79514831  0.11192488     1.90100
O780        O  0.83454952  0.83322688  0.05101529    -0.73800
O781        O  0.84878652  0.92158611  0.09703361    -0.73600
O782        O  0.80587983  0.87879000  0.04704664    -0.79300
O783        O  0.80895396  0.90704131  0.13845704    -0.77500
O784        O  0.79604929  0.84350692  0.10322659    -1.13600
O785        O  0.75866750  0.83724708  0.16208662    -0.72800
C786        C  0.77253797  0.81808681  0.17435287     0.97900
C787        C  0.80819271  0.79870542  0.04659927     0.94300
Al788      Al  0.83656337  0.87353886  0.07782697     1.55600
O789        O  0.72941139  0.77131899  0.10941576    -0.77400
C790        C  0.83787938  0.93160597  0.12211124     0.98500
C791        C  0.86967936  0.84224599  0.11803788     0.93300
O792        O  0.83916730  0.80928594  0.11622889    -0.82800
C793        C  0.91770710  0.03345551  0.13831505    -0.06200
C794        C  0.90340327  0.05451613  0.12282236    -0.00300
C795        C  0.86454248  0.03527347  0.11291594    -0.08800
C796        C  0.84212702  0.99471687  0.11637089    -0.06200
C797        C  0.85758852  0.97335695  0.12942933    -0.00300
C798        C  0.89515508  0.99301690  0.14199474    -0.08700
C799        C  0.91211956  0.97095147  0.15723809     0.61600
H800        H  0.94759004  0.04860559  0.14563401     0.12300
H801        H  0.81331182  0.97908125  0.10665907     0.12300
C802        C  0.84781340  0.05736711  0.09709137     0.61900
F803        F  0.94493567  0.99539381  0.17421132    -0.23300
F804        F  0.92157269  0.95267265  0.13336918    -0.20600
F805        F  0.88562346  0.94359885  0.17870904    -0.20300
F806        F  0.86897182  0.07571583  0.06937135    -0.20400
F807        F  0.84918012  0.08471036  0.11844434    -0.20700
F808        F  0.80974443  0.03326907  0.08855859    -0.23400
C809        C  0.76645630  0.93710937  0.97960096    -0.06200
C810        C  0.80414396  0.96775427  0.97254016    -0.00300
C811        C  0.83282933  0.97903183  0.99660120    -0.08800
C812        C  0.82405417  0.95549480  0.02413607    -0.06200
C813        C  0.78791335  0.92208718  0.02877581    -0.00300
C814        C  0.75788478  0.91411448  0.00750171    -0.08700
C815        C  0.71807297  0.87955149  0.01265789     0.61600
H816        H  0.74411781  0.92936207  0.96201157     0.12300
H817        H  0.84635093  0.96170968  0.04146055     0.12300
C818        C  0.87289662  0.01468913  0.99350083     0.61900
F819        F  0.70515685  0.87938960  0.04399136    -0.23300
F820        F  0.71995433  0.84668188  0.00732999    -0.20600
F821        F  0.69168266  0.87951667  0.99162639    -0.20300
F822        F  0.87001014  0.04619921  0.98460103    -0.20400
F823        F  0.89483347  0.00845350  0.97069368    -0.20700
F824        F  0.89225768  0.02372547  0.02250814    -0.23400
C825        C  0.93705698  0.14107901  0.94660338    -0.06200
C826        C  0.89711642  0.12615087  0.94589851    -0.00300
C827        C  0.87734072  0.12543598  0.97480401    -0.08800
C828        C  0.89818894  0.13761068  0.00396292    -0.06200
C829        C  0.93729429  0.14742917  0.00538887    -0.00300
C830        C  0.95706681  0.14907998  0.97570381    -0.08700
C831        C  0.99819617  0.15651291  0.97392913     0.61600
H832        H  0.95149083  0.14142173  0.92405195     0.12300
H833        H  0.88309992  0.13650332  0.02630693     0.12300
C834        C  0.83409029  0.10937226  0.97505436     0.61900
F835        F  0.99992088  0.12669565  0.98878288    -0.23300
F836        F  0.02273029  0.19098198  0.98870526    -0.20600
F837        F  0.01158105  0.15883164  0.94242670    -0.20300
F838        F  0.81522076  0.07107122  0.96555719    -0.20400
F839        F  0.82562141  0.13039783  0.95383970    -0.20700
F840        F  0.82013841  0.11128678  0.00551358    -0.23400
C841        C  0.12861843  0.21029372  0.02692879    -0.06200
C842        C  0.10548299  0.22685835  0.03133096    -0.00300
C843        C  0.10235489  0.24820182  0.00566636    -0.08800
C844        C  0.11474259  0.24411323  0.97434178    -0.06200
C845        C  0.13242906  0.22185269  0.96956217    -0.00300
C846        C  0.14429138  0.20971509  0.99669850    -0.08700
C847        C  0.17040073  0.19271514  0.99448283     0.61600
H848        H  0.13181653  0.19453720  0.04644337     0.12300
H849        H  0.10759177  0.25515398  0.95340845     0.12300
C850        C  0.08445301  0.27324153  0.01119026     0.61900
F851        F  0.19939985  0.21060883  0.01686231    -0.23300
F852        F  0.18784688  0.19791200  0.96422226    -0.20600
F853        F  0.14902561  0.15368284  0.00151735    -0.20300
F854        F  0.10635838  0.30196687  0.03309573    -0.20400
F855        F  0.04721506  0.25161612  0.02352314    -0.20700
F856        F  0.08326255  0.29062532  0.98277867    -0.23400
C857        C  0.02072597  0.13065372  0.82607908    -0.06200
C858        C  0.03565933  0.16369015  0.84558327    -0.00300
C859        C  0.01083157  0.17680796  0.85655664    -0.08800
C860        C  0.97069359  0.15288128  0.85224247    -0.06200
C861        C  0.95499857  0.11666139  0.83677887    -0.00300
C862        C  0.98084159  0.10750507  0.82059877    -0.08700
C863        C  0.96835968  0.07450020  0.79705945     0.61600
H864        H  0.04013421  0.12134980  0.81673032     0.12300
H865        H  0.95120344  0.16107753  0.86325385     0.12300
C866        C  0.02705008  0.21587442  0.87276762     0.61900
F867        F  0.98831559  0.08869903  0.76800523    -0.23300
F868        F  0.92941211  0.05630469  0.79075079    -0.20600
F869        F  0.97724653  0.04805526  0.80920932    -0.20300
F870        F  0.05309146  0.24421156  0.85173166    -0.20400
F871        F  0.04592724  0.21715615  0.90071541    -0.20700
F872        F  0.99833252  0.22408476  0.88074251    -0.23400
C873        C  0.96682931  0.85055325  0.11990143    -0.06200
C874        C  0.98609837  0.88308289  0.13993613    -0.00300
C875        C  0.96380041  0.89196295  0.16129304    -0.08800
C876        C  0.92409806  0.87539985  0.15561253    -0.06200
C877        C  0.90589395  0.84748781  0.13140796    -0.00300
C878        C  0.92654155  0.83192777  0.11582775    -0.08700
C879        C  0.90635944  0.79740775  0.09370798     0.61600
H880        H  0.98386628  0.84191269  0.10538792     0.12300
H881        H  0.90745251  0.88516197  0.16948437     0.12300
C882        C  0.98007899  0.91628756  0.19125514     0.61900
F883        F  0.93128388  0.78559945  0.08231785    -0.23300
F884        F  0.89147127  0.80652469  0.06762645    -0.20600
F885        F  0.87655894  0.76687456  0.11060567    -0.20300
F886        F  0.97438452  0.94733245  0.19041028    -0.20400
F887        F  0.01901009  0.92948280  0.19454133    -0.20700
F888        F  0.96078067  0.89407265  0.21821799    -0.23400
C889        C  0.17328099  0.09933608  0.97607668    -0.06200
C890        C  0.14573250  0.07959520  0.95235440    -0.00300
C891        C  0.11861433  0.03977903  0.95657156    -0.08800
C892        C  0.11696428  0.02214837  0.98610244    -0.06200
C893        C  0.14137002  0.04288638  0.01164101    -0.00300
C894        C  0.17144575  0.08182504  0.00609743    -0.08700
C895        C  0.20017090  0.10567396  0.03195511     0.61600
H896        H  0.19441276  0.12951341  0.97183095     0.12300
H897        H  0.09488707  0.99219513  0.98996745     0.12300
C898        C  0.09022749  0.01618707  0.93056297     0.61900
F899        F  0.22595418  0.14291361  0.02142934    -0.23300
F900        F  0.22136034  0.08865186  0.04014296    -0.20600
F901        F  0.18077851  0.10821284  0.05907320    -0.20300
F902        F  0.10931117  0.02348713  0.90092236    -0.20400
F903        F  0.06192778  0.02592390  0.92945866    -0.20700
F904        F  0.07244574  0.97686162  0.93654948    -0.23400
C905        C  0.12819432  0.11254409  0.13222429    -0.06200
C906        C  0.10184020  0.07338356  0.13882666    -0.00300
C907        C  0.06515396  0.06301272  0.15208204    -0.08800
C908        C  0.05242622  0.08949321  0.15068054    -0.06200
C909        C  0.07646801  0.12710831  0.13893606    -0.00300
C910        C  0.11631421  0.14027796  0.13350231    -0.08700
C911        C  0.14578874  0.18276048  0.12901078     0.61600
H912        H  0.15707059  0.12074954  0.12379153     0.12300
H913        H  0.02251771  0.07987416  0.15693920     0.12300
C914        C  0.03750223  0.02326028  0.16534663     0.61900
F915        F  0.18288317  0.18907964  0.12519862    -0.23300
F916        F  0.14484938  0.20285797  0.15600303    -0.20600
F917        F  0.13772284  0.19725530  0.10216235    -0.20300
F918        F  0.05617732  0.00337862  0.17256596    -0.20400
F919        F  0.00935040  0.00274290  0.14280687    -0.20700
F920        F  0.02041027  0.02650257  0.19370485    -0.23400
C921        C  0.80976855  0.78591571  0.95699119    -0.06200
C922        C  0.83002369  0.76608498  0.95486079    -0.00300
C923        C  0.83168526  0.74655563  0.98255521    -0.08800
C924        C  0.82134137  0.75511486  0.01292494    -0.06200
C925        C  0.80666372  0.78013392  0.01535415    -0.00300
C926        C  0.79637572  0.79172936  0.98687089    -0.08700
C927        C  0.77251069  0.81118151  0.98707511     0.61600
H928        H  0.80762721  0.80012142  0.93569126     0.12300
H929        H  0.82647608  0.74374106  0.03476916     0.12300
C930        C  0.84346157  0.71633194  0.98073102     0.61900
F931        F  0.74279596  0.79266379  0.96541624    -0.23300
F932        F  0.79542494  0.84945697  0.97787618    -0.20600
F933        F  0.75590032  0.80924284  0.01714839    -0.20300
F934        F  0.85308555  0.71127809  0.94945854    -0.20400
F935        F  0.81286533  0.68142913  0.99156045    -0.20700
F936        F  0.87451292  0.72657426  0.00037626    -0.23400
C937        C  0.87561547  0.89790066  0.83531975    -0.06200
C938        C  0.85065426  0.86267339  0.85054047    -0.00300
C939        C  0.81285408  0.85399969  0.85972444    -0.08800
C940        C  0.80385569  0.88367231  0.85854828    -0.06200
C941        C  0.83125379  0.92090497  0.84761856    -0.00300
C942        C  0.86587099  0.92666329  0.83261174    -0.08700
C943        C  0.89500043  0.96429678  0.81669154     0.61600
H944        H  0.90423995  0.90418015  0.82765480     0.12300
H945        H  0.77652341  0.87850575  0.86870337     0.12300
C946        C  0.78140798  0.81444632  0.87111209     0.61900
F947        F  0.91123012  0.95733191  0.78948307    -0.23300
F948        F  0.92374767  0.98592322  0.83842231    -0.20600
F949        F  0.87788059  0.98482293  0.80692034    -0.20300
F950        F  0.79344146  0.78773692  0.87151126    -0.20400
F951        F  0.75059973  0.80097196  0.85043580    -0.20700
F952        F  0.76885380  0.81723112  0.90185082    -0.23400
C953        C  0.01229318  0.85152143  0.02755775    -0.06200
C954        C  0.05182053  0.87922175  0.02745796    -0.00300
C955        C  0.07261282  0.89029303  0.99761356    -0.08800
C956        C  0.05194351  0.87757782  0.96850560    -0.06200
C957        C  0.01168780  0.85274534  0.96897815    -0.00300
C958        C  0.99240226  0.83653200  0.99865675    -0.08700
C959        C  0.95086159  0.80388594  0.00060654     0.61600
H960        H  0.99650494  0.84238499  0.05037339     0.12300
H961        H  0.06669564  0.88852971  0.94540578     0.12300
C962        C  0.11611437  0.91615301  0.99686242     0.61900
F963        F  0.94754373  0.77667194  0.02272719    -0.23300
F964        F  0.93827601  0.78514027  0.97135460    -0.20600
F965        F  0.92744198  0.81821957  0.01028383    -0.20300
F966        F  0.13215097  0.89864425  0.01422589    -0.20400
F967        F  0.12653007  0.95148578  0.01063263    -0.20700
F968        F  0.13117292  0.92247497  0.96558799    -0.23400
C969        C  0.03952583  0.96650725  0.84609100    -0.06200
C970        C  0.00796875  0.95148777  0.86812365    -0.00300
C971        C  0.99698176  0.97747679  0.88194415    -0.08800
C972        C  0.01779576  0.01660105  0.87293550    -0.06200
C973        C  0.05189004  0.03212780  0.85426382    -0.00300
C974        C  0.06132505  0.00637118  0.83851721    -0.08700
C975        C  0.09385785  0.01986605  0.81360210     0.61600
H976        H  0.04744796  0.94698636  0.83480870     0.12300
H977        H  0.00990493  0.03632250  0.88373097     0.12300
C978        C  0.96613272  0.96590744  0.90866047     0.61900
F979        F  0.08276747  0.99367448  0.78839826    -0.23300
F980        F  0.12600838  0.02266647  0.82783103    -0.20600
F981        F  0.10335287  0.05524643  0.80042649    -0.20300
F982        F  0.97316333  0.94747562  0.93348414    -0.20400
F983        F  0.92981664  0.94198946  0.89638573    -0.20700
F984        F  0.96597800  0.99750063  0.92220566    -0.23400
C985        C  0.94177156  0.79684426  0.71625824    -0.06200
C986        C  0.98097966  0.82019322  0.70691962    -0.00300
C987        C  0.00848996  0.83948575  0.73145410    -0.08800
C988        C  0.99561270  0.83440146  0.76405907    -0.06200
C989        C  0.95627886  0.81162189  0.77350928    -0.00300
C990        C  0.92874367  0.79246360  0.74887026    -0.08700
C991        C  0.88569271  0.76816590  0.75634477     0.61600
H992        H  0.92085950  0.78256714  0.69744402     0.12300
H993        H  0.01674049  0.84905680  0.78263218     0.12300
C994        C  0.05135224  0.86555126  0.72373743     0.61900
F995        F  0.86425297  0.75409258  0.72855538    -0.23300
F996        F  0.87322810  0.79030496  0.77246300    -0.20600
F997        F  0.87826250  0.73678485  0.77522888    -0.20300
F998        F  0.05740084  0.89835701  0.70771660    -0.20400
F999        F  0.06456512  0.84603043  0.70463654    -0.20700
F1000       F  0.07324418  0.87740023  0.75141251    -0.23400
C1001       C  0.75264327  0.80385903  0.26621575    -0.06200
C1002       C  0.78523057  0.80240490  0.27633807    -0.00300
C1003       C  0.81397836  0.80807783  0.25297314    -0.08800
C1004       C  0.80833750  0.81349765  0.22035950    -0.06200
C1005       C  0.77560320  0.81445110  0.21005082    -0.00300
C1006       C  0.74730271  0.80988103  0.23345773    -0.08700
C1007       C  0.71140383  0.81056606  0.22394820     0.61600
H1008       H  0.73130574  0.80041459  0.28440933     0.12300
H1009       H  0.83020305  0.81774471  0.20240445     0.12300
C1010       C  0.85161407  0.81084950  0.26243799     0.61900
F1011       F  0.68632087  0.80286936  0.25005011    -0.23300
F1012       F  0.69195177  0.78294650  0.20053338    -0.20600
F1013       F  0.72172114  0.84665486  0.21190867    -0.20300
F1014       F  0.84436315  0.77625645  0.27572839    -0.20400
F1015       F  0.87006865  0.84025718  0.28465122    -0.20700
F1016       F  0.87654645  0.81897488  0.23613852    -0.23400
C1017       C  0.91460261  0.80138045  0.45269606    -0.06200
C1018       C  0.87460670  0.77659492  0.45561712    -0.00300
C1019       C  0.85810941  0.76003598  0.48604074    -0.08800
C1020       C  0.88198887  0.77161620  0.51325868    -0.06200
C1021       C  0.92146737  0.80019410  0.51092562    -0.00300
C1022       C  0.93854912  0.81361388  0.47967273    -0.08700
C1023       C  0.98124117  0.84259926  0.47424739     0.61600
H1024       H  0.92647556  0.81557129  0.42973785     0.12300
H1025       H  0.86915864  0.76057839  0.53693360     0.12300
C1026       C  0.81508473  0.73176566  0.48968679     0.61900
F1027       F  0.99235128  0.84429493  0.44203597    -0.23300
F1028       F  0.00304768  0.83198993  0.49199723    -0.20600
F1029       F  0.98926386  0.87910542  0.48336496    -0.20300
F1030       F  0.80499453  0.71657438  0.52069828    -0.20400
F1031       F  0.80446955  0.70156144  0.46823584    -0.20700
F1032       F  0.79466676  0.75004378  0.48310223    -0.23400
C1033       C  0.74679996  0.98048159  0.72835651    -0.06200
C1034       C  0.77670252  0.97857318  0.71232145    -0.00300
C1035       C  0.81060286  0.98793599  0.72924716    -0.08800
C1036       C  0.81482550  0.00221655  0.76101407    -0.06200
C1037       C  0.78550086  0.00559866  0.77685809    -0.00300
C1038       C  0.75010310  0.99277159  0.76074393    -0.08700
C1039       C  0.71695232  0.99460428  0.77654511     0.61600
H1040       H  0.72108750  0.97304654  0.71491195     0.12300
H1041       H  0.84116370  0.01078455  0.77386730     0.12300
C1042       C  0.84271503  0.98430556  0.71322587     0.61900
F1043       F  0.68520785  0.98035569  0.75677100    -0.23300
F1044       F  0.72914834  0.03274713  0.78299296    -0.20600
F1045       F  0.70530815  0.97299377  0.80474609    -0.20300
F1046       F  0.85635590  0.00846068  0.68663043    -0.20400
F1047       F  0.82876697  0.94652540  0.70353272    -0.20700
F1048       F  0.87319005  0.99442817  0.73375983    -0.23400
C1049       C  0.77134136  0.82966123  0.50053977    -0.06200
C1050       C  0.76474251  0.84322353  0.47172178    -0.00300
C1051       C  0.74751839  0.86646069  0.47291682    -0.08800
C1052       C  0.74274061  0.88011725  0.50327587    -0.06200
C1053       C  0.75362602  0.86998001  0.53196646    -0.00300
C1054       C  0.76507490  0.84197230  0.53077674    -0.08700
C1055       C  0.77551144  0.82899037  0.56116913     0.61600
H1056       H  0.78399518  0.81141893  0.49920261     0.12300
H1057       H  0.73383545  0.90144920  0.50450865     0.12300
C1058       C  0.73629236  0.87824765  0.44212693     0.61900
F1059       F  0.77700231  0.79565211  0.55603267    -0.23300
F1060       F  0.74824988  0.82151314  0.58539589    -0.20600
F1061       F  0.81132716  0.85787732  0.57088789    -0.20300
F1062       F  0.70976388  0.84550059  0.42583676    -0.20400
F1063       F  0.76854235  0.89926609  0.42242636    -0.20700
F1064       F  0.71971311  0.90061658  0.44848710    -0.23400
C1065       C  0.83450560  0.86188490  0.63584407    -0.06200
C1066       C  0.85322098  0.90259284  0.63656569    -0.00300
C1067       C  0.89370010  0.92395197  0.64132052    -0.08800
C1068       C  0.91453453  0.90479463  0.63872661    -0.06200
C1069       C  0.89650568  0.86526447  0.63203456    -0.00300
C1070       C  0.85579330  0.84278246  0.63240050    -0.08700
C1071       C  0.83541740  0.79966462  0.62638488     0.61600
H1072       H  0.80338263  0.84546268  0.63396173     0.12300
H1073       H  0.94582911  0.92153717  0.63908880     0.12300
C1074       C  0.91651469  0.96731107  0.64599498     0.61900
F1075       F  0.79563921  0.78299044  0.62766611    -0.23300
F1076       F  0.84578228  0.78225669  0.64969475    -0.20600
F1077       F  0.84590869  0.79264306  0.59610914    -0.20300
F1078       F  0.89442148  0.98021342  0.66120472    -0.16800
F1079       F  0.92958766  0.98556665  0.61631020    -0.20700
F1080       F  0.94789619  0.97743117  0.66533049    -0.23400
C1081       C  0.17595395  0.02286457  0.21395488    -0.06200
C1082       C  0.15327762  0.98372920  0.20470272    -0.00300
C1083       C  0.13873485  0.95494020  0.22919311    -0.08800
C1084       C  0.14566544  0.96658436  0.26171202    -0.06200
C1085       C  0.16575812  0.00579948  0.27129204    -0.00300
C1086       C  0.18248716  0.03455121  0.24672161    -0.08700
C1087       C  0.20652253  0.07730377  0.25455627     0.61600
H1088       H  0.18747972  0.04473325  0.19515806     0.12300
H1089       H  0.13376191  0.94436030  0.28017559     0.12300
C1090       C  0.11543995  0.91194640  0.22165677     0.61900
F1091       F  0.22176144  0.09978894  0.22692861    -0.23300
F1092       F  0.23710193  0.08389161  0.27371135    -0.20600
F1093       F  0.18382878  0.08921386  0.27060701    -0.20300
F1094       F  0.10921105  0.88932341  0.24879352    -0.20400
F1095       F  0.13497236  0.90250524  0.19884078    -0.20700
F1096       F  0.07967520  0.90266507  0.21014236    -0.23400
C1097       C  0.10748991  0.95539234  0.52472368    -0.06200
C1098       C  0.09431822  0.91588945  0.52830891    -0.00300
C1099       C  0.09855069  0.89564488  0.50196648    -0.08800
C1100       C  0.10677862  0.91307113  0.47092099    -0.06200
C1101       C  0.11395231  0.95098476  0.46692557    -0.00300
C1102       C  0.11938168  0.97380168  0.49469416    -0.08700
C1103       C  0.13605532  0.01705042  0.49317420     0.61600
H1104       H  0.10515474  0.97133046  0.54504547     0.12300
H1105       H  0.10642938  0.89692228  0.44968767     0.12300
C1106       C  0.09546772  0.85687642  0.50705256     0.61900
F1107       F  0.15307580  0.03425749  0.52213478    -0.23300
F1108       F  0.10691687  0.02477780  0.48733643    -0.20600
F1109       F  0.16442268  0.03324903  0.46920446    -0.20300
F1110       F  0.05939955  0.83014755  0.51912401    -0.20400
F1111       F  0.12282953  0.86115711  0.52905764    -0.20700
F1112       F  0.10208432  0.84268896  0.47850929    -0.23400
C1113       C  0.95382548  0.89968465  0.33819358    -0.06200
C1114       C  0.94091651  0.86174733  0.34789079    -0.00300
C1115       C  0.96812337  0.84964440  0.35148944    -0.08800
C1116       C  0.00786421  0.87808622  0.35244070    -0.06200
C1117       C  0.02052410  0.91736981  0.34700509    -0.00300
C1118       C  0.99335432  0.92706194  0.33537918    -0.08700
C1119       C  0.00459991  0.96655090  0.32202631     0.61600
H1120       H  0.93277055  0.90843519  0.33403960     0.12300
H1121       H  0.02877775  0.87002947  0.35903725     0.12300
C1122       C  0.95501202  0.80703485  0.35318225     0.61900
F1123       F  0.98061704  0.96278401  0.29694591    -0.23300
F1124       F  0.04207326  0.98556315  0.30967461    -0.20600
F1125       F  0.00080123  0.98840472  0.34626843    -0.20300
F1126       F  0.93600342  0.78936572  0.32504687    -0.20400
F1127       F  0.93002190  0.78953788  0.37911086    -0.20700
F1128       F  0.98590997  0.80116219  0.35612668    -0.23400
C1129       C  0.14325532  0.20599201  0.76594082    -0.06200
C1130       C  0.16162300  0.18567918  0.77481768    -0.00300
C1131       C  0.17570860  0.17075594  0.75053101    -0.08800
C1132       C  0.16989752  0.17597728  0.71795657    -0.06200
C1133       C  0.15049255  0.19539807  0.70892879    -0.00300
C1134       C  0.13709801  0.21099686  0.73343318    -0.08700
C1135       C  0.11645507  0.23284545  0.72582285     0.61600
H1136       H  0.13256637  0.21702026  0.78498392     0.12300
H1137       H  0.17994685  0.16406214  0.69915909     0.12300
C1138       C  0.19773578  0.15049452  0.75875877     0.61900
F1139       F  0.11050878  0.24942490  0.75319869    -0.23300
F1140       F  0.08069955  0.20775791  0.71308182    -0.20600
F1141       F  0.13825655  0.26222603  0.70389772    -0.20300
F1142       F  0.17345742  0.11586284  0.77429044    -0.20400
F1143       F  0.22808389  0.17377556  0.77870065    -0.20700
F1144       F  0.21285461  0.14251404  0.73134072    -0.23400
C1145       C  0.12872774  0.13917768  0.48664247    -0.06200
C1146       C  0.15623224  0.14607445  0.51008437    -0.00300
C1147       C  0.18859081  0.14246049  0.50102830    -0.08800
C1148       C  0.18875042  0.12652444  0.47032338    -0.06200
C1149       C  0.15708764  0.11312071  0.44972871    -0.00300
C1150       C  0.12648528  0.11973501  0.45809852    -0.08700
C1151       C  0.08977080  0.10411121  0.43869188     0.61600
H1152       H  0.10600067  0.14534501  0.49231254     0.12300
H1153       H  0.21182689  0.12120995  0.46349969     0.12300
C1154       C  0.22211618  0.15437223  0.52345806     0.61900
F1155       F  0.06542226  0.11662737  0.45034350    -0.23300
F1156       F  0.06905880  0.06428327  0.43992983    -0.20600
F1157       F  0.09919903  0.11628108  0.40720891    -0.20300
F1158       F  0.21021781  0.12981667  0.54991946    -0.20400
F1159       F  0.23581801  0.19191038  0.53378002    -0.20700
F1160       F  0.25239377  0.15304607  0.50810541    -0.23400
C1161       C  0.92657176  0.08858252  0.64904177    -0.06200
C1162       C  0.91201077  0.07788568  0.61755792    -0.00300
C1163       C  0.93730884  0.09607843  0.59043716    -0.08800
C1164       C  0.97603993  0.12259568  0.59590984    -0.06200
C1165       C  0.99130651  0.13010115  0.62683766    -0.00300
C1166       C  0.96648850  0.11389308  0.65410362    -0.08700
C1167       C  0.98239026  0.12306371  0.68793606     0.61600
H1168       H  0.90710651  0.07523090  0.66951759     0.12300
H1169       H  0.99565755  0.13508659  0.57541844     0.12300
C1170       C  0.92489293  0.08649839  0.55540279     0.61900
F1171       F  0.95362974  0.10411167  0.71128788    -0.23300
F1172       F  0.99968879  0.16240191  0.69312346    -0.20600
F1173       F  0.00955784  0.11201493  0.69145891    -0.20300
F1174       F  0.89079577  0.08593971  0.55138409    -0.20400
F1175       F  0.92031379  0.05099317  0.54717948    -0.20700
F1176       F  0.95171556  0.11349283  0.53385185    -0.23400
C1177       C  0.04427854  0.99469792  0.64290792    -0.06200
C1178       C  0.06605022  0.97791328  0.63290673    -0.00300
C1179       C  0.10695170  0.00228568  0.62918758    -0.08800
C1180       C  0.12271592  0.04277692  0.62830212    -0.06200
C1181       C  0.09948999  0.05895620  0.63429017    -0.00300
C1182       C  0.06116044  0.03484758  0.64573610    -0.08700
C1183       C  0.03731350  0.05079046  0.66044396     0.61600
H1184       H  0.01369687  0.97634528  0.64826047     0.12300
H1185       H  0.15258616  0.06179199  0.62097286     0.12300
C1186       C  0.13393446  0.98629393  0.62588508     0.61900
F1187       F  0.01920929  0.03075669  0.68860514    -0.23300
F1188       F  0.00965582  0.04663214  0.63884894    -0.20600
F1189       F  0.06004883  0.08933482  0.66858692    -0.20300
F1190       F  0.12687489  0.96505603  0.59787742    -0.20400
F1191       F  0.12858773  0.96297346  0.65227824    -0.20700
F1192       F  0.17232527  0.01545988  0.62493597    -0.23400
C1193       C  0.99392065  0.17546812  0.26265985    -0.06200
C1194       C  0.96359353  0.18005455  0.27451126    -0.00300
C1195       C  0.94264103  0.18903619  0.25262092    -0.08800
C1196       C  0.95307626  0.19324389  0.21938155    -0.06200
C1197       C  0.98366200  0.18872569  0.20734634    -0.00300
C1198       C  0.00421291  0.17904706  0.22960116    -0.08700
C1199       C  0.03638018  0.17149107  0.21916556     0.61600
H1200       H  0.00963070  0.16875713  0.27989989     0.12300
H1201       H  0.93740318  0.20042062  0.20250724     0.12300
C1202       C  0.91053149  0.19563114  0.26444864     0.61900
F1203       F  0.04904964  0.15875959  0.24458434    -0.23300
F1204       F  0.06784631  0.20516486  0.20736507    -0.20600
F1205       F  0.02314526  0.14315463  0.19564735    -0.20300
F1206       F  0.92457503  0.22416525  0.28780592    -0.20400
F1207       F  0.88054956  0.16173046  0.27741667    -0.20700
F1208       F  0.89597926  0.20730220  0.23970633    -0.23400
C1209       C  0.85299793  0.10121359  0.48352482    -0.06200
C1210       C  0.85900112  0.08138020  0.45803186    -0.00300
C1211       C  0.83807481  0.04037179  0.45833371    -0.08800
C1212       C  0.81692238  0.02102801  0.48616953    -0.06200
C1213       C  0.81686667  0.04108040  0.51398000    -0.00300
C1214       C  0.83045961  0.08128132  0.51121825    -0.08700
C1215       C  0.82101468  0.10292995  0.53661112     0.61600
H1216       H  0.86706502  0.13241601  0.48214430     0.12300
H1217       H  0.80355709  0.98989073  0.48753193     0.12300
C1218       C  0.84130387  0.01667490  0.43120764     0.61900
F1219       F  0.82779259  0.13801542  0.52467567    -0.23300
F1220       F  0.84317208  0.11007686  0.56371692    -0.20600
F1221       F  0.78231555  0.08133752  0.54543916    -0.20300
F1222       F  0.87799675  0.02201279  0.43085353    -0.20400
F1223       F  0.83370887  0.02778854  0.40211679    -0.20700
F1224       F  0.81537064  0.97754304  0.43505010    -0.23400
C1225       C  0.01939279  0.21385105  0.49472303    -0.06200
C1226       C  0.03829299  0.21161930  0.46660579    -0.00300
C1227       C  0.07600039  0.21744891  0.46889489    -0.08800
C1228       C  0.09173640  0.22080023  0.49981266    -0.06200
C1229       C  0.07092170  0.21863863  0.52827906    -0.00300
C1230       C  0.03514512  0.21747025  0.52562851    -0.08700
C1231       C  0.01192748  0.21897954  0.55442832     0.61600
H1232       H  0.99073078  0.20990690  0.49278385     0.12300
H1233       H  0.11900916  0.22170084  0.50203941     0.12300
C1234       C  0.09867243  0.21852831  0.43867871     0.61900
F1235       F  0.00818099  0.25119305  0.55149663    -0.23300
F1236       F  0.02893371  0.22125948  0.58369085    -0.20600
F1237       F  0.97545441  0.18647786  0.55478903    -0.20300
F1238       F  0.10143766  0.24657021  0.41773373    -0.20400
F1239       F  0.08016686  0.18319111  0.42331365    -0.20700
F1240       F  0.13570366  0.22705344  0.44577100    -0.23400
C1241       C  0.91302670  0.00574925  0.37290145    -0.06200
C1242       C  0.89355042  0.02094201  0.35645837    -0.00300
C1243       C  0.85792797  0.99506146  0.34190275    -0.08800
C1244       C  0.84141733  0.95478176  0.34759348    -0.06200
C1245       C  0.85878006  0.94065060  0.36854338    -0.00300
C1246       C  0.89487484  0.96738265  0.38252864    -0.08700
C1247       C  0.91315488  0.95767074  0.41033127     0.61600
H1248       H  0.94154111  0.02551399  0.38199257     0.12300
H1249       H  0.81437578  0.93426750  0.33661282     0.12300
C1250       C  0.83790033  0.00969887  0.32052921     0.61900
F1251       F  0.94115481  0.99050945  0.42572569    -0.23300
F1252       F  0.93073158  0.93777956  0.39892853    -0.20600
F1253       F  0.88531161  0.93608640  0.43365236    -0.20300
F1254       F  0.86298499  0.03217177  0.29589325    -0.20400
F1255       F  0.82663742  0.03166104  0.33839212    -0.20700
F1256       F  0.80538407  0.97959426  0.30663773    -0.23400
C1257       C  0.09098324  0.15863075  0.34889608    -0.06200
C1258       C  0.05098239  0.13722578  0.34421371    -0.00300
C1259       C  0.03573005  0.10144107  0.32767478    -0.08800
C1260       C  0.05764639  0.08318165  0.32570538    -0.06200
C1261       C  0.09569540  0.10155381  0.33626960    -0.00300
C1262       C  0.11418713  0.14171194  0.34350033    -0.08700
C1263       C  0.15744770  0.16578046  0.34775739     0.61600
H1264       H  0.10337574  0.18716342  0.35942289     0.12300
H1265       H  0.04439096  0.05374744  0.31706426     0.12300
C1266       C  0.99688464  0.08165626  0.31154407     0.61900
F1267       F  0.16969788  0.20472571  0.35023419    -0.23300
F1268       F  0.17614015  0.16088526  0.32126003    -0.20600
F1269       F  0.16799834  0.15480746  0.37540224    -0.20300
F1270       F  0.97821615  0.10252984  0.31408101    -0.20400
F1271       F  0.97371586  0.04554352  0.32504903    -0.20700
F1272       F  0.00231990  0.07720077  0.27897061    -0.23400
C1273       C  0.42580797  0.54675539  0.16893862    -0.06200
C1274       C  0.43516504  0.57284303  0.19469789    -0.00300
C1275       C  0.46073584  0.61257320  0.18869628    -0.08800
C1276       C  0.46853471  0.62597937  0.15670360    -0.06200
C1277       C  0.45390324  0.60031678  0.13076040    -0.00300
C1278       C  0.43504517  0.56007047  0.13659360    -0.08700
C1279       C  0.42349485  0.53175482  0.10876161     0.61600
H1280       H  0.40762578  0.51621943  0.17389857     0.12300
H1281       H  0.48425793  0.65685568  0.15200130     0.12300
C1282       C  0.47658682  0.64175203  0.21563896     0.61900
F1283       F  0.40461979  0.49382610  0.11957058    -0.23300
F1284       F  0.45624940  0.53867754  0.09147032    -0.20600
F1285       F  0.39924266  0.53619925  0.08832008    -0.20300
F1286       F  0.47416546  0.62404154  0.24489607    -0.20400
F1287       F  0.45610341  0.66086825  0.21774130    -0.20700
F1288       F  0.51511815  0.66834688  0.20928020    -0.23400
C1289       C  0.60567446  0.70265776  0.07922272    -0.06200
C1290       C  0.59662635  0.72082555  0.05464959    -0.00300
C1291       C  0.62597736  0.75791922  0.04365996    -0.08800
C1292       C  0.66135791  0.77667125  0.05953750    -0.06200
C1293       C  0.67010951  0.75984238  0.08507370    -0.00300
C1294       C  0.64225044  0.72141859  0.09443319    -0.08700
C1295       C  0.65032092  0.70112048  0.12125308     0.61600
H1296       H  0.58321393  0.67441640  0.08753577     0.12300
H1297       H  0.68280638  0.80543620  0.05175346     0.12300
C1298       C  0.62237915  0.77966656  0.01526423     0.61900
F1299       F  0.61845771  0.66535022  0.12850892    -0.23300
F1300       F  0.66023684  0.72333348  0.14901184    -0.20600
F1301       F  0.68036086  0.69553073  0.11184825    -0.20300
F1302       F  0.62593765  0.81395864  0.02614666    -0.20400
F1303       F  0.58812118  0.75943910  0.99933193    -0.20700
F1304       F  0.65156155  0.78778019  0.99283023    -0.23400
C1305       C  0.25645269  0.48976527  0.11370259    -0.06200
C1306       C  0.21674360  0.46430291  0.11635905    -0.00300
C1307       C  0.20032208  0.44316757  0.14502871    -0.08800
C1308       C  0.22451428  0.45018953  0.17145822    -0.06200
C1309       C  0.26408102  0.47898789  0.17011491    -0.00300
C1310       C  0.28078980  0.49763207  0.13991109    -0.08700
C1311       C  0.32341101  0.52721548  0.13492519     0.61600
H1312       H  0.26776049  0.50652186  0.09159719     0.12300
H1313       H  0.21183127  0.43528860  0.19409937     0.12300
C1314       C  0.15719416  0.41513192  0.14784555     0.61900
F1315       F  0.33317061  0.53610826  0.10251381    -0.23300
F1316       F  0.34527027  0.51244007  0.14650981    -0.20600
F1317       F  0.33261946  0.56127109  0.15065794    -0.20300
F1318       F  0.14605340  0.38808499  0.12334178    -0.20400
F1319       F  0.13752501  0.43493462  0.14505674    -0.20700
F1320       F  0.14684516  0.39576596  0.17722526    -0.23400
C1321       C  0.29537183  0.56510139  0.99327685    -0.06200
C1322       C  0.27562291  0.52818271  0.00694153    -0.00300
C1323       C  0.29738009  0.51153672  0.01780317    -0.08800
C1324       C  0.33773059  0.53548720  0.02103181    -0.06200
C1325       C  0.35653468  0.57452833  0.01199089    -0.00300
C1326       C  0.33567637  0.58801978  0.99447117    -0.08700
C1327       C  0.35425743  0.62826245  0.98033762     0.61600
H1328       H  0.27900368  0.57735876  0.98379331     0.12300
H1329       H  0.35390476  0.52435260  0.03290718     0.12300
C1330       C  0.27968015  0.46921096  0.02639432     0.61900
F1331       F  0.33951675  0.62687653  0.95006214    -0.23300
F1332       F  0.39386981  0.64500319  0.97668357    -0.20600
F1333       F  0.34601242  0.65077165  0.00063048    -0.20300
F1334       F  0.24046892  0.44822263  0.02118979    -0.20400
F1335       F  0.28626539  0.46532385  0.05843838    -0.20700
F1336       F  0.29694785  0.45352818  0.00730065    -0.23400
C1337       C  0.05187124  0.36515061  0.09806220    -0.06200
C1338       C  0.05256846  0.37126060  0.06464741    -0.00300
C1339       C  0.03287738  0.33925410  0.04383711    -0.08800
C1340       C  0.01486199  0.30165352  0.05708195    -0.06200
C1341       C  0.01820935  0.29549237  0.09001648    -0.00300
C1342       C  0.03511425  0.32766888  0.11121791    -0.08700
C1343       C  0.03711242  0.32283415  0.14740149     0.61600
H1344       H  0.06749694  0.39006899  0.11354447     0.12300
H1345       H  0.00119122  0.27684725  0.04124652     0.12300
C1346       C  0.03365272  0.34505177  0.00754267     0.61900
F1347       F  0.04497814  0.35604469  0.16402503    -0.23300
F1348       F  0.06605780  0.31491814  0.15370042    -0.20600
F1349       F  0.00216072  0.29293540  0.15907894    -0.20300
F1350       F  0.07104910  0.36058620  0.99557140    -0.20400
F1351       F  0.02055604  0.37010819  0.00087160    -0.20700
F1352       F  0.01049399  0.31061533  0.99163332    -0.23400
C1353       C  0.18744983  0.56273990  0.30003259    -0.06200
C1354       C  0.20468606  0.60102620  0.28801576    -0.00300
C1355       C  0.24286623  0.61808353  0.27413272    -0.08800
C1356       C  0.26034066  0.59548175  0.27146296    -0.06200
C1357       C  0.24190536  0.55641705  0.28067297    -0.00300
C1358       C  0.20507829  0.53986947  0.29607923    -0.08700
C1359       C  0.18358396  0.49787586  0.30653942     0.61600
H1360       H  0.15876079  0.54988987  0.31080976     0.12300
H1361       H  0.28889781  0.60814342  0.26050671     0.12300
C1362       C  0.26498596  0.65861675  0.25917217     0.61900
F1363       F  0.14708386  0.48664258  0.31892681    -0.23300
F1364       F  0.20387521  0.49216931  0.33030358    -0.20600
F1365       F  0.17952482  0.47459571  0.28029614    -0.20300
F1366       F  0.26836226  0.68602716  0.28124174    -0.20400
F1367       F  0.24630697  0.66015002  0.23205577    -0.20700
F1368       F  0.30220268  0.66899024  0.24933953    -0.23400
C1369       C  0.08606053  0.56312084  0.16770854    -0.06200
C1370       C  0.10984302  0.56580940  0.19325099    -0.00300
C1371       C  0.13077150  0.54615107  0.19065171    -0.08800
C1372       C  0.13128657  0.52884063  0.16123359    -0.06200
C1373       C  0.11142311  0.53028568  0.13445638    -0.00300
C1374       C  0.08697406  0.54600493  0.13787020    -0.08700
C1375       C  0.06423499  0.54688520  0.10945249     0.61600
H1376       H  0.06923177  0.57716104  0.17034609     0.12300
H1377       H  0.14950742  0.51628181  0.15821882     0.12300
C1378       C  0.15429242  0.54514901  0.21824344     0.61900
F1379       F  0.04264549  0.56386009  0.11742959    -0.23300
F1380       F  0.03928087  0.50956807  0.09925118    -0.20600
F1381       F  0.08925320  0.56778186  0.08426674    -0.20300
F1382       F  0.13257770  0.53574850  0.24665069    -0.20400
F1383       F  0.18720456  0.58091747  0.22088044    -0.20700
F1384       F  0.16538694  0.51795900  0.21336916    -0.23400
C1385       C  0.29910188  0.76899495  0.32558850    -0.06200
C1386       C  0.32151410  0.80583524  0.31152066    -0.00300
C1387       C  0.30197831  0.82478444  0.30054346    -0.08800
C1388       C  0.26199648  0.80213840  0.29452829    -0.06200
C1389       C  0.24056013  0.76328913  0.30420026    -0.00300
C1390       C  0.25849598  0.74856061  0.32410018    -0.08700
C1391       C  0.23608869  0.71296698  0.34536527     0.61600
H1392       H  0.31342945  0.75567650  0.33719091     0.12300
H1393       H  0.24761490  0.81431246  0.28134422     0.12300
C1394       C  0.32235646  0.86834067  0.29643500     0.61900
F1395       F  0.24880772  0.68721908  0.34010960    -0.23300
F1396       F  0.19683610  0.69402437  0.34035942    -0.20600
F1397       F  0.24223384  0.72436519  0.37741208    -0.20300
F1398       F  0.34754234  0.88046638  0.27020994    -0.20400
F1399       F  0.34272444  0.88590254  0.32409371    -0.20700
F1400       F  0.29623254  0.88065510  0.29193302    -0.23400
C1401       C  0.44470680  0.75788850  0.12886835    -0.06200
C1402       C  0.48042966  0.76081657  0.12296938    -0.00300
C1403       C  0.51112596  0.78234674  0.14404579    -0.08800
C1404       C  0.50422125  0.79891296  0.17183846    -0.06200
C1405       C  0.46742106  0.79409424  0.17905912    -0.00300
C1406       C  0.43725416  0.77404526  0.15626193    -0.08700
C1407       C  0.39654453  0.76751452  0.16064960     0.61600
H1408       H  0.42172082  0.74082231  0.11222222     0.12300
H1409       H  0.52730606  0.81452831  0.18873291     0.12300
C1410       C  0.55026943  0.78644689  0.13749917     0.61900
F1411       F  0.37363599  0.74933820  0.13423589    -0.23300
F1412       F  0.39810802  0.80254466  0.16436400    -0.20600
F1413       F  0.37851170  0.74414477  0.18735310    -0.20300
F1414       F  0.56436687  0.80364626  0.10756006    -0.20400
F1415       F  0.54679254  0.75036134  0.13750820    -0.20700
F1416       F  0.57673851  0.80895014  0.16063491    -0.23400
C1417       C  0.43774203  0.67072968  0.29114053    -0.06200
C1418       C  0.39860902  0.64636780  0.29952313    -0.00300
C1419       C  0.37791895  0.66267420  0.31436213    -0.08800
C1420       C  0.39582064  0.70289169  0.31630580    -0.06200
C1421       C  0.43192808  0.72693741  0.30171961    -0.00300
C1422       C  0.45444240  0.71111927  0.29048591    -0.08700
C1423       C  0.49399050  0.73615776  0.27474557     0.61600
H1424       H  0.45375001  0.65790718  0.28145570     0.12300
H1425       H  0.37955275  0.71570596  0.32597480     0.12300
C1426       C  0.33724425  0.64000994  0.32832287     0.61900
F1427       F  0.51140564  0.71501743  0.26646196    -0.23300
F1428       F  0.51784501  0.76485231  0.29590991    -0.20600
F1429       F  0.49050118  0.75281877  0.24682003    -0.20300
F1430       F  0.31906698  0.60138896  0.32098704    -0.20400
F1431       F  0.31529118  0.65464048  0.31651940    -0.20700
F1432       F  0.33858172  0.64395839  0.36162664    -0.23400
C1433       C  0.25608937  0.92589842  0.09004137    -0.06200
C1434       C  0.25398892  0.91557318  0.05731198    -0.00300
C1435       C  0.23457120  0.92667193  0.03557005    -0.08800
C1436       C  0.21578503  0.94588752  0.04769979    -0.06200
C1437       C  0.21359681  0.95159179  0.08102231    -0.00300
C1438       C  0.23508203  0.94271877  0.10254510    -0.08700
C1439       C  0.23414376  0.94909218  0.13874911     0.61600
H1440       H  0.27091539  0.91696675  0.10633800     0.12300
H1441       H  0.19943072  0.95307855  0.03159318     0.12300
C1442       C  0.23036678  0.91473523  0.00029985     0.61900
F1443       F  0.26189242  0.94494142  0.15452079    -0.23300
F1444       F  0.19838649  0.92246923  0.15168907    -0.20600
F1445       F  0.24100375  0.98599293  0.14464064    -0.20300
F1446       F  0.20309454  0.87587640  0.99787351    -0.20400
F1447       F  0.26528482  0.92112119  0.98760625    -0.20700
F1448       F  0.21863089  0.93544823  0.98189529    -0.23400
C1449       C  0.22742213  0.67863619  0.00474466    -0.06200
C1450       C  0.20273955  0.69172815  0.01517832    -0.00300
C1451       C  0.16318146  0.66446210  0.02139975    -0.08800
C1452       C  0.15127285  0.62490532  0.02194034    -0.06200
C1453       C  0.17758969  0.61212793  0.01630668    -0.00300
C1454       C  0.21521537  0.63910955  0.00419628    -0.08700
C1455       C  0.24375455  0.62728746  0.99264902     0.61600
H1456       H  0.25747316  0.69977436  0.99948522     0.12300
H1457       H  0.12174583  0.60422612  0.02911234     0.12300
C1458       C  0.13264241  0.67519123  0.02848926     0.61900
F1459       F  0.26263492  0.62379655  0.01886291    -0.23300
F1460       F  0.27108777  0.65458824  0.97163802    -0.20600
F1461       F  0.22487203  0.59262996  0.97611373    -0.20300
F1462       F  0.14716371  0.71457823  0.02806224    -0.20400
F1463       F  0.11567116  0.66082678  0.05849625    -0.20700
F1464       F  0.10443683  0.65863658  0.00533220    -0.23400
C1465       C  0.16027656  0.76908558  0.17644112    -0.06200
C1466       C  0.14441641  0.72909252  0.17978969    -0.00300
C1467       C  0.13556393  0.70613006  0.15156541    -0.08800
C1468       C  0.15337350  0.72422459  0.12231717    -0.06200
C1469       C  0.17574959  0.76441020  0.12009313    -0.00300
C1470       C  0.17528590  0.78719368  0.14627773    -0.08700
C1471       C  0.18891719  0.82975015  0.14300063     0.61600
H1472       H  0.16407309  0.78655310  0.19770376     0.12300
H1473       H  0.15259092  0.70679184  0.10191961     0.12300
C1474       C  0.11090326  0.66249800  0.15212782     0.61900
F1475       F  0.21360081  0.85048121  0.16771695    -0.23300
F1476       F  0.15718157  0.83447600  0.14516390    -0.20600
F1477       F  0.20754947  0.84472909  0.11366920    -0.20300
F1478       F  0.08825833  0.64926965  0.18008056    -0.20400
F1479       F  0.13452978  0.64679600  0.14983597    -0.20700
F1480       F  0.08636488  0.65008523  0.12611312    -0.23400
C1481       C  0.34645060  0.85683841  0.20009738    -0.06200
C1482       C  0.38691271  0.87764046  0.20123391    -0.00300
C1483       C  0.40861244  0.89707514  0.17302687    -0.08800
C1484       C  0.38890340  0.89097176  0.14360171    -0.06200
C1485       C  0.34865339  0.86632506  0.14225471    -0.00300
C1486       C  0.32697736  0.85169588  0.17130860    -0.08700
C1487       C  0.28337399  0.82796728  0.17206045     0.61600
H1488       H  0.32978881  0.84140295  0.22146521     0.12300
H1489       H  0.40501355  0.90262402  0.12113350     0.12300
C1490       C  0.45225059  0.92112893  0.17347285     0.61900
F1491       F  0.26854042  0.83175457  0.20153206    -0.23300
F1492       F  0.27147047  0.78942599  0.16728098    -0.20600
F1493       F  0.26884676  0.84060395  0.14823035    -0.20300
F1494       F  0.46718627  0.89767265  0.18028995    -0.20400
F1495       F  0.46348131  0.94940159  0.19692761    -0.20700
F1496       F  0.46760240  0.93922705  0.14400508    -0.23400
C1497       C  0.42572173  0.78084875  0.04779585    -0.06200
C1498       C  0.41602204  0.75315249  0.02329936    -0.00300
C1499       C  0.38963186  0.74992126  0.99951820    -0.08800
C1500       C  0.36686593  0.76687325  0.00593305    -0.06200
C1501       C  0.37395502  0.79151260  0.03251560    -0.00300
C1502       C  0.40615956  0.80138483  0.05198107    -0.08700
C1503       C  0.41878112  0.83227204  0.07778982     0.61600
H1504       H  0.44808413  0.78536097  0.06441884     0.12300
H1505       H  0.34348846  0.76095319  0.98991127     0.12300
C1506       C  0.38629968  0.73199382  0.96650844     0.61900
F1507       F  0.45143520  0.83803215  0.09341113    -0.23300
F1508       F  0.38952834  0.82172330  0.10063005    -0.20600
F1509       F  0.42733074  0.86690290  0.06363381    -0.20300
F1510       F  0.34867162  0.70306243  0.96153897    -0.20400
F1511       F  0.41041913  0.71713991  0.96240221    -0.20700
F1512       F  0.39630723  0.76018600  0.94312524    -0.23400
C1513       C  0.50925417  0.84654193  0.38142264    -0.06200
C1514       C  0.48531661  0.86183046  0.37448831    -0.00300
C1515       C  0.46636270  0.86885620  0.40097074    -0.08800
C1516       C  0.47186984  0.85990916  0.43272498    -0.06200
C1517       C  0.49513892  0.84395862  0.43944211    -0.00300
C1518       C  0.51450733  0.83745916  0.41323916    -0.08700
C1519       C  0.54129865  0.82177466  0.41865885     0.61600
H1520       H  0.52347427  0.84082831  0.36144226     0.12300
H1521       H  0.45716483  0.86471799  0.45288020     0.12300
C1522       C  0.44032037  0.88568577  0.39637865     0.61900
F1523       F  0.56042506  0.82167735  0.39041516    -0.23300
F1524       F  0.52024522  0.78415567  0.42993674    -0.20600
F1525       F  0.56886633  0.84444781  0.44098614    -0.20300
F1526       F  0.40742083  0.85950129  0.38023706    -0.20400
F1527       F  0.45990501  0.91983258  0.37893579    -0.20700
F1528       F  0.42858909  0.89390249  0.42561733    -0.23400
C1529       C  0.60643306  0.92414804  0.58910755    -0.06200
C1530       C  0.60294798  0.91023521  0.55714364    -0.00300
C1531       C  0.63706296  0.91778260  0.53980610    -0.08800
C1532       C  0.67195810  0.93340335  0.55642034    -0.06200
C1533       C  0.67445057  0.94344295  0.58913757    -0.00300
C1534       C  0.64191177  0.94067832  0.60549137    -0.08700
C1535       C  0.64487836  0.95471891  0.64003441     0.61600
H1536       H  0.58071017  0.91967321  0.60195331     0.12300
H1537       H  0.69753645  0.93668075  0.54402559     0.12300
C1538       C  0.63731002  0.90847989  0.50415356     0.61900
F1539       F  0.60988355  0.94902439  0.65193630    -0.23300
F1540       F  0.67169724  0.99382561  0.64115549    -0.20600
F1541       F  0.65659841  0.93516046  0.65988179    -0.20300
F1542       F  0.61113643  0.91433059  0.48755775    -0.20400
F1543       F  0.62819537  0.87049634  0.50073829    -0.20700
F1544       F  0.67340749  0.93214801  0.49008692    -0.23400
C1545       C  0.51867303  0.68776001  0.88215096    -0.06200
C1546       C  0.48505775  0.65721855  0.86848889    -0.00300
C1547       C  0.45411420  0.63214156  0.88953763    -0.08800
C1548       C  0.45796121  0.63911251  0.92325964    -0.06200
C1549       C  0.49114026  0.67054389  0.93672637    -0.00300
C1550       C  0.52228813  0.69500223  0.91568829    -0.08700
C1551       C  0.55976023  0.72786911  0.92842484     0.61600
H1552       H  0.54238195  0.70658763  0.86603192     0.12300
H1553       H  0.43446260  0.62021883  0.93952450     0.12300
C1554       C  0.41668755  0.59910742  0.87667017     0.61900
F1555       F  0.58753329  0.74581577  0.90415564    -0.23300
F1556       F  0.57427500  0.71353613  0.95097056    -0.20600
F1557       F  0.55321578  0.75546474  0.94241772    -0.20300
F1558       F  0.42376722  0.57257347  0.86124136    -0.20400
F1559       F  0.40095716  0.61324834  0.85511447    -0.20700
F1560       F  0.38956591  0.57994290  0.90116562    -0.23400
C1561       C  0.54951888  0.78279345  0.67357630    -0.06200
C1562       C  0.53667264  0.74368158  0.67919008    -0.00300
C1563       C  0.53482928  0.72007613  0.65267210    -0.08800
C1564       C  0.53857649  0.73467068  0.62112248    -0.06200
C1565       C  0.54432426  0.77159385  0.61556536    -0.00300
C1566       C  0.55471007  0.79744280  0.64183768    -0.08700
C1567       C  0.57043641  0.84001004  0.63597915     0.61600
H1568       H  0.55286953  0.80113056  0.69409534     0.12300
H1569       H  0.53370760  0.71584304  0.60076938     0.12300
C1570       C  0.52736732  0.67910983  0.65567830     0.61900
F1571       F  0.58010754  0.86071727  0.66458467    -0.23300
F1572       F  0.54360112  0.84576843  0.62057870    -0.20600
F1573       F  0.60333458  0.85405978  0.61662503    -0.20300
F1574       F  0.49578516  0.65415058  0.63764463    -0.20400
F1575       F  0.52054578  0.66543503  0.68704498    -0.20700
F1576       F  0.55926695  0.67824357  0.64357431    -0.23400
C1577       C  0.13087839  0.64898756  0.39182770    -0.06200
C1578       C  0.10954725  0.66208512  0.37511174    -0.00300
C1579       C  0.09514304  0.68307606  0.39269389    -0.08800
C1580       C  0.10322158  0.69028404  0.42598288    -0.06200
C1581       C  0.12581323  0.67834906  0.44197420    -0.00300
C1582       C  0.14019361  0.65759933  0.42458135    -0.08700
C1583       C  0.16456234  0.64285765  0.43941673     0.61600
H1584       H  0.14182344  0.63285555  0.37882230     0.12300
H1585       H  0.09182010  0.70532197  0.43998935     0.12300
C1586       C  0.07016183  0.69668360  0.37718795     0.61900
F1587       F  0.19548163  0.65102439  0.41889819    -0.23300
F1588       F  0.14221549  0.60325919  0.44345499    -0.20600
F1589       F  0.17943763  0.65949267  0.46892354    -0.20300
F1590       F  0.04006354  0.66612414  0.36147849    -0.20400
F1591       F  0.09196215  0.72621763  0.35540801    -0.20700
F1592       F  0.05429588  0.71052486  0.39985620    -0.23400
C1593       C  0.29714502  0.75895131  0.56144843    -0.06200
C1594       C  0.27962738  0.74468778  0.53170749    -0.00300
C1595       C  0.30272617  0.75099384  0.50355279    -0.08800
C1596       C  0.34341223  0.77009210  0.50665664    -0.06200
C1597       C  0.36073466  0.78291792  0.53701483    -0.00300
C1598       C  0.33723597  0.77872858  0.56459587    -0.08700
C1599       C  0.35414342  0.79489786  0.59753875     0.61600
H1600       H  0.27883310  0.75378335  0.58269161     0.12300
H1601       H  0.36169191  0.77336284  0.48584322     0.12300
C1602       C  0.28422094  0.73620510  0.47105346     0.61900
F1603       F  0.32698234  0.79514298  0.61860836    -0.23300
F1604       F  0.38420721  0.83257990  0.59411517    -0.20600
F1605       F  0.36740708  0.77271380  0.61141303    -0.20300
F1606       F  0.26136681  0.75169877  0.46384790    -0.20400
F1607       F  0.26150265  0.69639984  0.47216707    -0.20700
F1608       F  0.31157721  0.74612266  0.44642097    -0.23400
C1609       C  0.03116003  0.71287572  0.54722246    -0.06200
C1610       C  0.05987423  0.71301689  0.56612956    -0.00300
C1611       C  0.06756236  0.73085822  0.59693221    -0.08800
C1612       C  0.04961080  0.75175549  0.60606749    -0.06200
C1613       C  0.02237821  0.75371350  0.58664269    -0.00300
C1614       C  0.01128076  0.73205234  0.55736822    -0.08700
C1615       C  0.97947662  0.72969791  0.53652972     0.61600
H1616       H  0.02519200  0.69846217  0.52400788     0.12300
H1617       H  0.05733864  0.76710554  0.62891594     0.12300
C1618       C  0.09523288  0.72999515  0.62090337     0.61900
F1619       F  0.97378700  0.70739335  0.50919702    -0.23300
F1620       F  0.98874242  0.76618553  0.52651308    -0.20600
F1621       F  0.94509019  0.71307317  0.55414206    -0.20300
F1622       F  0.12739406  0.76656698  0.62306229    -0.20400
F1623       F  0.10694347  0.70409855  0.61265784    -0.20700
F1624       F  0.07729286  0.71926964  0.65108947    -0.23400
C1625       C  0.34472123  0.86466524  0.89548399    -0.06200
C1626       C  0.31633321  0.86310147  0.87535076    -0.00300
C1627       C  0.28111104  0.85716376  0.88954527    -0.08800
C1628       C  0.27597820  0.85324162  0.92340469    -0.06200
C1629       C  0.30397860  0.85387231  0.94358464    -0.00300
C1630       C  0.33903484  0.85932399  0.92925245    -0.08700
C1631       C  0.36977212  0.85765060  0.94882324     0.61600
H1632       H  0.37110262  0.86864631  0.88425217     0.12300
H1633       H  0.24934487  0.84885851  0.93440667     0.12300
C1634       C  0.24865581  0.85468398  0.86942353     0.61900
F1635       F  0.39848348  0.85817154  0.92930898    -0.23300
F1636       F  0.35306237  0.82381602  0.96663427    -0.20600
F1637       F  0.38711912  0.88908345  0.96931272    -0.20300
F1638       F  0.23104845  0.82024565  0.85252958    -0.20400
F1639       F  0.26315567  0.88541133  0.84795805    -0.20700
F1640       F  0.22051540  0.85586978  0.88849989    -0.23400
C1641       C  0.43774664  0.84365895  0.69803844    -0.06200
C1642       C  0.43263542  0.87556274  0.69678618    -0.00300
C1643       C  0.44378827  0.89838630  0.66855985    -0.08800
C1644       C  0.45572513  0.88580863  0.64109601    -0.06200
C1645       C  0.45672164  0.85105102  0.64114944    -0.00300
C1646       C  0.44899202  0.83036165  0.67090532    -0.08700
C1647       C  0.44962339  0.79295112  0.67443866     0.61600
H1648       H  0.42896519  0.82661771  0.71997203     0.12300
H1649       H  0.46269511  0.90263691  0.61900578     0.12300
C1650       C  0.44250627  0.93532760  0.66629233     0.61900
F1651       F  0.44349647  0.77990422  0.70617417    -0.23300
F1652       F  0.48516342  0.79877472  0.66461618    -0.20600
F1653       F  0.42089603  0.76416049  0.65610230    -0.20300
F1654       F  0.41402581  0.93010768  0.64517229    -0.20400
F1655       F  0.47776334  0.96478765  0.65471994    -0.20700
F1656       F  0.43529830  0.94669979  0.69604865    -0.23400
C1657       C  0.40817767  0.77687160  0.81905117    -0.06200
C1658       C  0.42480709  0.81175545  0.80187987    -0.00300
C1659       C  0.46266113  0.82680484  0.78850540    -0.08800
C1660       C  0.47832585  0.80242715  0.78610937    -0.06200
C1661       C  0.45811950  0.76463055  0.79834680    -0.00300
C1662       C  0.42470060  0.75326741  0.81807517    -0.08700
C1663       C  0.40465182  0.71576976  0.83715306     0.61600
H1664       H  0.38098557  0.76697718  0.83189379     0.12300
H1665       H  0.50506213  0.81205511  0.77249135     0.12300
C1666       C  0.48783654  0.86816323  0.77706219     0.61900
F1667       F  0.39853544  0.72332219  0.86877797    -0.23300
F1668       F  0.42625962  0.69779152  0.83795554    -0.20600
F1669       F  0.36937726  0.69089910  0.82357967    -0.20300
F1670       F  0.47041247  0.88989616  0.78184449    -0.20400
F1671       F  0.49721262  0.86896703  0.74461059    -0.20700
F1672       F  0.52166734  0.88527617  0.79429799    -0.23400
C1673       C  0.26390601  0.82387412  0.65475038    -0.06200
C1674       C  0.25038248  0.80450535  0.68456415    -0.00300
C1675       C  0.21344856  0.77079240  0.68634671    -0.08800
C1676       C  0.19387506  0.75402920  0.65754129    -0.06200
C1677       C  0.20911470  0.77112823  0.62726890    -0.00300
C1678       C  0.24304321  0.80810109  0.62597380    -0.08700
C1679       C  0.25707572  0.83033510  0.59438938     0.61600
H1680       H  0.29157230  0.85051260  0.65394640     0.12300
H1681       H  0.16758324  0.72602596  0.65830294     0.12300
C1682       C  0.19572496  0.75140042  0.71847299     0.61900
F1683       F  0.28977248  0.86623739  0.59851045    -0.23300
F1684       F  0.22837205  0.83582815  0.58230311    -0.20600
F1685       F  0.26575840  0.81005675  0.57202327    -0.20300
F1686       F  0.19796357  0.77842804  0.74063473    -0.20400
F1687       F  0.21510247  0.73382842  0.72987370    -0.20700
F1688       F  0.15724359  0.72368217  0.71552303    -0.23400
C1689       C  0.08955086  0.48651319  0.89351530    -0.06200
C1690       C  0.11229646  0.47796041  0.87267901    -0.00300
C1691       C  0.13247679  0.46069585  0.88616162    -0.08800
C1692       C  0.13207253  0.45667529  0.92005046    -0.06200
C1693       C  0.11149781  0.46782816  0.94094321    -0.00300
C1694       C  0.08798796  0.48105533  0.92722926    -0.08700
C1695       C  0.06106159  0.48953377  0.94750084     0.61600
H1696       H  0.07310785  0.49825801  0.88322030     0.12300
H1697       H  0.14903707  0.44569803  0.93063554     0.12300
C1698       C  0.15462875  0.44643740  0.86558902     0.61900
F1699       F  0.03528594  0.49352999  0.92852594    -0.23300
F1700       F  0.08228334  0.52364732  0.96434487    -0.20600
F1701       F  0.03952781  0.45943400  0.96893081    -0.20300
F1702       F  0.18506654  0.47711860  0.84933734    -0.20400
F1703       F  0.13007419  0.41923792  0.84368234    -0.20700
F1704       F  0.16989748  0.42893679  0.88405403    -0.23400
C1705       C  0.06567879  0.54267193  0.66809526    -0.06200
C1706       C  0.07893046  0.56574900  0.69581070    -0.00300
C1707       C  0.08621581  0.60397619  0.69432037    -0.08800
C1708       C  0.09059161  0.62095226  0.66372774    -0.06200
C1709       C  0.08546100  0.59974351  0.63524730    -0.00300
C1710       C  0.06847615  0.55909994  0.63748296    -0.08700
C1711       C  0.05779026  0.53398322  0.60768387     0.61600
H1712       H  0.05699759  0.51251327  0.67014458     0.12300
H1713       H  0.10144836  0.65170765  0.66186542     0.12300
C1714       C  0.09310536  0.62782657  0.72445816     0.61900
F1715       F  0.04006948  0.49510630  0.61544545    -0.23300
F1716       F  0.09096307  0.54413042  0.58976368    -0.20600
F1717       F  0.03240060  0.53924713  0.58935869    -0.20300
F1718       F  0.12923592  0.63892600  0.73613023    -0.20400
F1719       F  0.06501315  0.60638630  0.74764003    -0.20700
F1720       F  0.09098347  0.66046997  0.71820453    -0.23400
C1721       C  0.22921353  0.65323036  0.79212953    -0.06200
C1722       C  0.19081162  0.64168878  0.79920613    -0.00300
C1723       C  0.18108390  0.66961293  0.80839788    -0.08800
C1724       C  0.20942865  0.70919773  0.80466537    -0.06200
C1725       C  0.24718016  0.72098233  0.79307343    -0.00300
C1726       C  0.25785530  0.69208107  0.78895270    -0.08700
C1727       C  0.29832840  0.70063241  0.77943173     0.61600
H1728       H  0.23587325  0.63096910  0.78599973     0.12300
H1729       H  0.20176088  0.73101808  0.80954142     0.12300
C1730       C  0.14126923  0.65734885  0.82213099     0.61900
F1731       F  0.30176293  0.66803906  0.78030042    -0.23300
F1732       F  0.32453768  0.72671149  0.80089530    -0.20600
F1733       F  0.30768584  0.71510284  0.74820052    -0.20300
F1734       F  0.13446807  0.63481280  0.84939147    -0.20400
F1735       F  0.11344294  0.63600576  0.79971313    -0.20700
F1736       F  0.13785860  0.68883852  0.83088319    -0.23400
C1737       C  0.27119329  0.53853003  0.75365413    -0.06200
C1738       C  0.25259173  0.54716809  0.77828922    -0.00300
C1739       C  0.27468943  0.57295825  0.80327237    -0.08800
C1740       C  0.31543171  0.59197264  0.80087674    -0.06200
C1741       C  0.33417298  0.58627365  0.77416327    -0.00300
C1742       C  0.31155576  0.55786019  0.75087967    -0.08700
C1743       C  0.32963673  0.54924244  0.72206237     0.61600
H1744       H  0.25367194  0.51867007  0.73490083     0.12300
H1745       H  0.33266024  0.61255151  0.81931466     0.12300
C1746       C  0.25686780  0.58074815  0.83298410     0.61900
F1747       F  0.30269422  0.51884641  0.70367497    -0.23300
F1748       F  0.35603300  0.53952203  0.73251264    -0.20600
F1749       F  0.34741194  0.58151859  0.70252541    -0.20300
F1750       F  0.21695063  0.56122219  0.83262212    -0.20400
F1751       F  0.27024591  0.61987796  0.83530926    -0.20700
F1752       F  0.26778320  0.56917951  0.86025227    -0.23400
C1753       C  0.28701310  0.49863770  0.42143005    -0.06200
C1754       C  0.28770441  0.46718949  0.43506739    -0.00300
C1755       C  0.29975817  0.44572030  0.41563858    -0.08800
C1756       C  0.31007630  0.45635215  0.38299535    -0.06200
C1757       C  0.31052607  0.48855487  0.36991567    -0.00300
C1758       C  0.29958431  0.51054037  0.38947473    -0.08700
C1759       C  0.30167974  0.54659742  0.37664470     0.61600
H1760       H  0.27788095  0.51483755  0.43652696     0.12300
H1761       H  0.31822443  0.43978184  0.36733559     0.12300
C1762       C  0.30001513  0.41078091  0.42854645     0.61900
F1763       F  0.33952170  0.57271266  0.36771109    -0.23300
F1764       F  0.28974140  0.56404553  0.39940463    -0.20600
F1765       F  0.27814844  0.53716296  0.35024197    -0.20300
F1766       F  0.26345329  0.38453979  0.44002065    -0.20400
F1767       F  0.32644657  0.42167436  0.45300378    -0.20700
F1768       F  0.31000966  0.39264892  0.40486256    -0.23400
C1769       C  0.19927452  0.59819195  0.50467789    -0.06200
C1770       C  0.16086558  0.57873894  0.51612769    -0.00300
C1771       C  0.14117400  0.53782587  0.51853018    -0.08800
C1772       C  0.16287860  0.51910240  0.51589532    -0.06200
C1773       C  0.20274011  0.53970122  0.50846913    -0.00300
C1774       C  0.21958729  0.57878281  0.49866648    -0.08700
C1775       C  0.25854608  0.60088042  0.48172293     0.61600
H1776       H  0.21403780  0.62921898  0.50119038     0.12300
H1777       H  0.14883657  0.48849170  0.52136204     0.12300
C1778       C  0.09797164  0.51260679  0.52363309     0.61900
F1779       F  0.25583698  0.62005981  0.45511787    -0.23300
F1780       F  0.27107464  0.57651087  0.47050900    -0.20600
F1781       F  0.28523907  0.62766483  0.50269447    -0.20300
F1782       F  0.07940486  0.53359994  0.52534266    -0.20400
F1783       F  0.09023319  0.49124116  0.55173643    -0.20700
F1784       F  0.08300074  0.48731538  0.49791035    -0.23400
C1785       C  0.40581025  0.55473673  0.66662823    -0.06200
C1786       C  0.41453406  0.59340863  0.66973477    -0.00300
C1787       C  0.40286782  0.60966938  0.64459457    -0.08800
C1788       C  0.38269768  0.58625584  0.61844382    -0.06200
C1789       C  0.37118243  0.54719694  0.61708089    -0.00300
C1790       C  0.38382098  0.53110869  0.64066545    -0.08700
C1791       C  0.37324269  0.48920458  0.63863910     0.61600
H1792       H  0.41482952  0.54258720  0.68546079     0.12300
H1793       H  0.37309268  0.59763200  0.59939579     0.12300
C1794       C  0.40729790  0.64987665  0.64587367     0.61900
F1795       F  0.38715529  0.47857470  0.66456562    -0.23300
F1796       F  0.38879582  0.48349024  0.61042299    -0.20600
F1797       F  0.33353074  0.46553655  0.63847150    -0.20300
F1798       F  0.44571202  0.67837459  0.64715608    -0.20400
F1799       F  0.38742658  0.65246873  0.67255213    -0.20700
F1800       F  0.39239537  0.65769846  0.61894402    -0.23400
C1801       C  0.16382141  0.47274328  0.61697019    -0.06200
C1802       C  0.18980737  0.45926042  0.61736476    -0.00300
C1803       C  0.19587323  0.44515671  0.64660078    -0.08800
C1804       C  0.17872367  0.44905292  0.67546636    -0.06200
C1805       C  0.15548448  0.46589425  0.67526683    -0.00300
C1806       C  0.14544007  0.47494295  0.64539596    -0.08700
C1807       C  0.11680287  0.48858580  0.64283838     0.61600
H1808       H  0.15907113  0.48319256  0.59438206     0.12300
H1809       H  0.18581434  0.44188833  0.69856669     0.12300
C1810       C  0.22211494  0.42835571  0.64734352     0.61900
F1811       F  0.09317960  0.47083817  0.61679353    -0.23300
F1812       F  0.13640459  0.52818176  0.63823300    -0.20600
F1813       F  0.09335972  0.47915673  0.67021252    -0.20300
F1814       F  0.25913977  0.45605685  0.63773585    -0.20400
F1815       F  0.20841255  0.39728856  0.62645332    -0.20700
F1816       F  0.22363522  0.41555641  0.67800073    -0.23400
C1817       C  0.41934741  0.61619868  0.52718341    -0.06200
C1818       C  0.38900579  0.60257154  0.50546584    -0.00300
C1819       C  0.38796014  0.62892532  0.48350754    -0.08800
C1820       C  0.41253569  0.66886399  0.48845082    -0.06200
C1821       C  0.43912345  0.68255355  0.51357262    -0.00300
C1822       C  0.44467241  0.65591458  0.53150561    -0.08700
C1823       C  0.47460208  0.66928076  0.55742855     0.61600
H1824       H  0.42024334  0.59565043  0.54349472     0.12300
H1825       H  0.40977328  0.68939657  0.47352792     0.12300
C1826       C  0.36251623  0.61629773  0.45431232     0.61900
F1827       F  0.47747925  0.63908287  0.57019887    -0.23300
F1828       F  0.46436608  0.68573097  0.58216864    -0.20600
F1829       F  0.51032408  0.69607691  0.54450320    -0.20300
F1830       F  0.33853868  0.57671060  0.45332182    -0.20400
F1831       F  0.38560329  0.62773161  0.42659429    -0.20700
F1832       F  0.34045136  0.63373803  0.45449188    -0.23400
C1833       C  0.25890544  0.36653925  0.59370750    -0.06200
C1834       C  0.25798060  0.37059879  0.56008329    -0.00300
C1835       C  0.24242926  0.33719075  0.54033415    -0.08800
C1836       C  0.22402496  0.30065363  0.55505786    -0.06200
C1837       C  0.22053581  0.29663083  0.58870884    -0.00300
C1838       C  0.24011801  0.32974778  0.60851132    -0.08700
C1839       C  0.24105278  0.32615852  0.64493184     0.61600
H1840       H  0.27201857  0.39234137  0.60847741     0.12300
H1841       H  0.20970306  0.27487152  0.54030455     0.12300
C1842       C  0.24539737  0.34003201  0.50386890     0.61900
F1843       F  0.26719742  0.36105406  0.65885461    -0.23300
F1844       F  0.25196351  0.29951262  0.65223771    -0.20600
F1845       F  0.20495134  0.31416292  0.65844739    -0.20300
F1846       F  0.28335143  0.36541762  0.49490803    -0.20400
F1847       F  0.22176261  0.35291251  0.49258335    -0.20700
F1848       F  0.23444155  0.30473726  0.48952622    -0.23400
C1849       C  0.89030755  0.63814093  0.88301249    -0.06200
C1850       C  0.88779582  0.63241061  0.91664266    -0.00300
C1851       C  0.90636082  0.66490141  0.93723004    -0.08800
C1852       C  0.92511715  0.70237787  0.92345643    -0.06200
C1853       C  0.92433671  0.70812012  0.89001427    -0.00300
C1854       C  0.90773082  0.67554500  0.86936389    -0.08700
C1855       C  0.90624590  0.68047269  0.83318540     0.61600
H1856       H  0.87571907  0.61300279  0.86763082     0.12300
H1857       H  0.93705829  0.72744828  0.93904911     0.12300
C1858       C  0.90382404  0.65980762  0.97369737     0.61900
F1859       F  0.89200060  0.64573269  0.81692852    -0.23300
F1860       F  0.94302005  0.70570616  0.82117557    -0.20600
F1861       F  0.88254326  0.69522782  0.82700117    -0.20300
F1862       F  0.91680942  0.63515346  0.98215032    -0.20400
F1863       F  0.86587181  0.64420228  0.98422062    -0.20700
F1864       F  0.92603582  0.69459108  0.98945275    -0.23400
C1865       C  0.84047991  0.41759940  0.81997808    -0.06200
C1866       C  0.84693711  0.44041259  0.79232825    -0.00300
C1867       C  0.85890138  0.47999996  0.79626236    -0.08800
C1868       C  0.85672937  0.49328792  0.82753335    -0.06200
C1869       C  0.84314943  0.46803231  0.85416312    -0.00300
C1870       C  0.83937074  0.43123637  0.85109939    -0.08700
C1871       C  0.83546078  0.40728832  0.88066782     0.61600
H1872       H  0.83430093  0.38819767  0.81686412     0.12300
H1873       H  0.86269036  0.52253480  0.83091984     0.12300
C1874       C  0.87183372  0.50734663  0.76765283     0.61900
F1875       F  0.83678275  0.37445740  0.87253161    -0.23300
F1876       F  0.80094281  0.39593262  0.89678322    -0.20600
F1877       F  0.86558692  0.42924645  0.90123272    -0.20300
F1878       F  0.84221895  0.49464673  0.74593909    -0.20400
F1879       F  0.90358576  0.50866111  0.75265023    -0.20700
F1880       F  0.88219819  0.54453729  0.77691826    -0.23400
C1881       C  0.93985369  0.39026881  0.76344040    -0.06200
C1882       C  0.93642706  0.38575964  0.72977316    -0.00300
C1883       C  0.96937479  0.39614931  0.71002205    -0.08800
C1884       C  0.00561337  0.41280952  0.72466066    -0.06200
C1885       C  0.00942946  0.42056164  0.75797445    -0.00300
C1886       C  0.97619590  0.40819663  0.77796291    -0.08700
C1887       C  0.97944348  0.41504354  0.81424838     0.61600
H1888       H  0.91405604  0.38210491  0.77799134     0.12300
H1889       H  0.03157922  0.42318138  0.70980180     0.12300
C1890       C  0.96622953  0.39178638  0.67356635     0.61900
F1891       F  0.94350724  0.39867849  0.82948133    -0.23300
F1892       F  0.99899684  0.45422404  0.82066990    -0.20600
F1893       F  0.99938098  0.39879309  0.82730063    -0.20300
F1894       F  0.95380435  0.41549695  0.66134107    -0.20400
F1895       F  0.93993106  0.35382864  0.66587746    -0.20700
F1896       F  0.00132978  0.40170781  0.65879289    -0.23400
C1897       C  0.72592400  0.33225207  0.99330142    -0.06200
C1898       C  0.74460039  0.31465700  0.97885090    -0.00300
C1899       C  0.78401923  0.33790014  0.96933148    -0.08800
C1900       C  0.80025751  0.37842146  0.96773282    -0.06200
C1901       C  0.77805119  0.39523798  0.97624277    -0.00300
C1902       C  0.74275917  0.37241922  0.99345911    -0.08700
C1903       C  0.72030070  0.38926577  0.00890378     0.61600
H1904       H  0.69709672  0.31422149  0.00300754     0.12300
H1905       H  0.82853055  0.39634733  0.95665112     0.12300
C1906       C  0.80788276  0.32004924  0.95909792     0.61900
F1907       F  0.70201321  0.36933412  0.03708896    -0.23300
F1908       F  0.69284818  0.38614825  0.98751784    -0.20600
F1909       F  0.74457483  0.42761367  0.01693710    -0.20300
F1910       F  0.79560271  0.30177493  0.92969029    -0.20400
F1911       F  0.80406346  0.29345984  0.98214976    -0.20700
F1912       F  0.84669773  0.34770567  0.95605765    -0.23400
C1913       C  0.76362051  0.24236906  0.84355108    -0.06200
C1914       C  0.74632863  0.25887880  0.86256793    -0.00300
C1915       C  0.74769342  0.29303646  0.85151110    -0.08800
C1916       C  0.76370758  0.30757122  0.82100491    -0.06200
C1917       C  0.77710459  0.28895054  0.80043884    -0.00300
C1918       C  0.77914594  0.25695063  0.81225242    -0.08700
C1919       C  0.79604186  0.23750197  0.79170483     0.61600
H1920       H  0.76263177  0.21660192  0.85251202     0.12300
H1921       H  0.76369172  0.33282127  0.81199717     0.12300
C1922       C  0.73083608  0.31374706  0.87068237     0.61900
F1923       F  0.79382529  0.20608915  0.80743312    -0.23300
F1924       F  0.83450456  0.26356681  0.78470440    -0.20600
F1925       F  0.77621438  0.22457664  0.76315697    -0.20300
F1926       F  0.74384105  0.31973060  0.90195405    -0.20400
F1927       F  0.69099649  0.29225516  0.87074983    -0.20700
F1928       F  0.74157741  0.34953972  0.85754716    -0.23400
C1929       C  0.72709894  0.06030555  0.93264264    -0.06200
C1930       C  0.73125960  0.05785237  0.89900965    -0.00300
C1931       C  0.71200940  0.07053108  0.87831628    -0.08800
C1932       C  0.69318946  0.08910100  0.89163688    -0.06200
C1933       C  0.69198706  0.09446798  0.92494415    -0.00300
C1934       C  0.70774462  0.07856185  0.94597246    -0.08700
C1935       C  0.70538522  0.08246597  0.98224699     0.61600
H1936       H  0.74107282  0.04987339  0.94838680     0.12300
H1937       H  0.68061425  0.10113207  0.87596031     0.12300
C1938       C  0.70970375  0.06286233  0.84246595     0.61900
F1939       F  0.72086505  0.06372432  0.99871318    -0.23300
F1940       F  0.66715145  0.06667780  0.99201403    -0.20600
F1941       F  0.72561075  0.12108254  0.99040912    -0.20300
F1942       F  0.69510574  0.02380627  0.83804092    -0.20400
F1943       F  0.74593538  0.08400468  0.82812460    -0.20700
F1944       F  0.68536079  0.07266479  0.82740710    -0.23400
C1945       C  0.64453034  0.19524966  0.67785396    -0.06200
C1946       C  0.62205471  0.21026216  0.66667826    -0.00300
C1947       C  0.64098224  0.24594343  0.65014394    -0.08800
C1948       C  0.68077548  0.27048287  0.65447562    -0.06200
C1949       C  0.70194778  0.25916789  0.67346925    -0.00300
C1950       C  0.68469594  0.21943008  0.68187301    -0.08700
C1951       C  0.70736299  0.20315728  0.69725770     0.61600
H1952       H  0.62990863  0.16610256  0.68747326     0.12300
H1953       H  0.69505547  0.29919333  0.64407108     0.12300
C1954       C  0.62045337  0.25838014  0.62729626     0.61900
F1955       F  0.68524879  0.16351339  0.70151976    -0.23300
F1956       F  0.71988691  0.21976440  0.72724264    -0.20600
F1957       F  0.73875839  0.21077006  0.67757436    -0.20300
F1958       F  0.62383881  0.29254749  0.63795592    -0.20400
F1959       F  0.58172074  0.23085950  0.62461124    -0.20700
F1960       F  0.63759321  0.26430827  0.59684464    -0.23400
C1961       C  0.54501285  0.11304017  0.81148186    -0.06200
C1962       C  0.56858177  0.14225305  0.78896036    -0.00300
C1963       C  0.60631016  0.17109287  0.79860465    -0.08800
C1964       C  0.61619051  0.17372055  0.83109920    -0.06200
C1965       C  0.59144680  0.14703980  0.85421102    -0.00300
C1966       C  0.55613074  0.11485655  0.84420473    -0.08700
C1967       C  0.52970099  0.08407200  0.86834931     0.61600
H1968       H  0.51664203  0.09064404  0.80407103     0.12300
H1969       H  0.64370459  0.19759981  0.83873176     0.12300
C1970       C  0.63637341  0.20125611  0.77585422     0.61900
F1971       F  0.49587204  0.05623282  0.85428728    -0.23300
F1972       F  0.52015492  0.10075451  0.89355609    -0.20600
F1973       F  0.54832510  0.06600779  0.88054307    -0.20300
F1974       F  0.63407560  0.23446166  0.77707848    -0.20400
F1975       F  0.63106084  0.18755914  0.74466646    -0.20700
F1976       F  0.67318453  0.21044987  0.78454957    -0.23400
C1977       C  0.38413909  0.01459408  0.71491771    -0.06200
C1978       C  0.39854530  0.04406001  0.73824813    -0.00300
C1979       C  0.38626319  0.03426670  0.77104266    -0.08800
C1980       C  0.36488175  0.99476477  0.77995287    -0.06200
C1981       C  0.35358526  0.96538378  0.75679169    -0.00300
C1982       C  0.36078738  0.97539680  0.72363944    -0.08700
C1983       C  0.34392266  0.94438587  0.69779143     0.61600
H1984       H  0.39232673  0.02248573  0.68975757     0.12300
H1985       H  0.35890917  0.98652477  0.80524978     0.12300
C1986       C  0.39735698  0.06517716  0.79662829     0.61900
F1987       F  0.35345179  0.96003381  0.66691413    -0.23300
F1988       F  0.30410236  0.92412785  0.70120030    -0.20600
F1989       F  0.35724595  0.91893126  0.70089486    -0.20300
F1990       F  0.38228380  0.08831997  0.78900211    -0.20400
F1991       F  0.43706978  0.08755421  0.79794861    -0.20700
F1992       F  0.38330014  0.04947565  0.82705756    -0.23400
C1993       C  0.50443301  0.33554555  0.68194197    -0.06200
C1994       C  0.54244739  0.35810966  0.66980064    -0.00300
C1995       C  0.56125837  0.33939487  0.65657071    -0.08800
C1996       C  0.54506087  0.29965429  0.66202734    -0.06200
C1997       C  0.51032433  0.27820948  0.67960400    -0.00300
C1998       C  0.48817849  0.29554314  0.68774837    -0.08700
C1999       C  0.44972319  0.27291547  0.70558824     0.61600
H2000       H  0.49004343  0.35028245  0.69147737     0.12300
H2001       H  0.56112604  0.28580069  0.65474225     0.12300
C2002       C  0.59987779  0.36091359  0.63899987     0.61900
F2003       F  0.45497848  0.26032968  0.73505825    -0.23300
F2004       F  0.42475072  0.24132849  0.68732477    -0.20600
F2005       F  0.43278047  0.29507027  0.71133248    -0.20300
F2006       F  0.62736183  0.35960163  0.65752480    -0.20400
F2007       F  0.61118127  0.39912377  0.63303258    -0.20700
F2008       F  0.59764809  0.34334675  0.60953626    -0.23400
C2009       C  0.73355203  0.52278056  0.79743795    -0.06200
C2010       C  0.69975116  0.52451526  0.79779292    -0.00300
C2011       C  0.68757517  0.53472715  0.82671094    -0.08800
C2012       C  0.70773655  0.53853859  0.85546678    -0.06200
C2013       C  0.74029034  0.53410683  0.85511821    -0.00300
C2014       C  0.75548972  0.53018758  0.82506515    -0.08700
C2015       C  0.79377488  0.53171844  0.82109482     0.61600
H2016       H  0.74270629  0.51477848  0.77542142     0.12300
H2017       H  0.69654811  0.54200248  0.87853402     0.12300
C2018       C  0.65202264  0.53863066  0.82744208     0.61900
F2019       F  0.81466892  0.55618134  0.79565660    -0.23300
F2020       F  0.78686874  0.49504957  0.81414245    -0.20600
F2021       F  0.81611107  0.54558022  0.84838022    -0.20300
F2022       F  0.62013473  0.50384067  0.81892154    -0.20400
F2023       F  0.65698901  0.56701369  0.80584011    -0.20700
F2024       F  0.64512212  0.54885025  0.85781757    -0.23400
C2025       C  0.71366346  0.44085607  0.65966349    -0.06200
C2026       C  0.72515091  0.47564164  0.67625582    -0.00300
C2027       C  0.76463758  0.49868302  0.68455910    -0.08800
C2028       C  0.78806694  0.48160651  0.68320717    -0.06200
C2029       C  0.77335977  0.44344933  0.67243254    -0.00300
C2030       C  0.73745946  0.42477986  0.65705737    -0.08700
C2031       C  0.72182133  0.38603452  0.64064109     0.61600
H2032       H  0.68470050  0.42470817  0.65047990     0.12300
H2033       H  0.81691345  0.49685897  0.69269464     0.12300
C2034       C  0.78189893  0.54047026  0.69480093     0.61900
F2035       F  0.70497812  0.38611696  0.61178875    -0.23300
F2036       F  0.69429938  0.35775766  0.66077279    -0.20600
F2037       F  0.75050877  0.37748908  0.63359841    -0.20300
F2038       F  0.76589318  0.54290338  0.72388721    -0.20400
F2039       F  0.77480471  0.56045109  0.67143101    -0.20700
F2040       F  0.82149248  0.55833819  0.69836646    -0.23400
C2041       C  0.60383836  0.61129602  0.73090694    -0.06200
C2042       C  0.58531235  0.57197072  0.74006137    -0.00300
C2043       C  0.55358485  0.55795627  0.76235806    -0.08800
C2044       C  0.53747752  0.58092980  0.76990003    -0.06200
C2045       C  0.55309486  0.61857734  0.75799128    -0.00300
C2046       C  0.58874629  0.63532141  0.74042861    -0.08700
C2047       C  0.61042217  0.67786721  0.73179491     0.61600
H2048       H  0.62937651  0.62273484  0.71540945     0.12300
H2049       H  0.51128037  0.56887330  0.78469460     0.12300
C2050       C  0.53599622  0.51870775  0.77843047     0.61900
F2051       F  0.61861022  0.69949680  0.75981223    -0.23300
F2052       F  0.58831949  0.68632127  0.71217895    -0.20600
F2053       F  0.64499369  0.68862853  0.71566018    -0.20300
F2054       F  0.56486662  0.51169295  0.78734179    -0.20400
F2055       F  0.51113026  0.49042731  0.75740374    -0.20700
F2056       F  0.51527165  0.51683803  0.80622842    -0.23400
C2057       C  0.47596596  0.20747273  0.86751839    -0.06200
C2058       C  0.45223245  0.22362073  0.86920142    -0.00300
C2059       C  0.43606981  0.22805336  0.84070890    -0.08800
C2060       C  0.44495959  0.21683433  0.81105430    -0.06200
C2061       C  0.47129813  0.20365698  0.80892550    -0.00300
C2062       C  0.48632844  0.19778641  0.83777853    -0.08700
C2063       C  0.51380731  0.18230438  0.83756331     0.61600
H2064       H  0.48958434  0.20618183  0.88944599     0.12300
H2065       H  0.43308014  0.22046437  0.78900040     0.12300
C2066       C  0.41064350  0.24585441  0.84167880     0.61900
F2067       F  0.51916727  0.17268557  0.86837394    -0.23300
F2068       F  0.54948513  0.20982799  0.82509292    -0.20600
F2069       F  0.49889438  0.14940907  0.81891092    -0.20300
F2070       F  0.43072010  0.28301249  0.85372797    -0.20400
F2071       F  0.37898684  0.22369500  0.86146780    -0.20700
F2072       F  0.39761493  0.24749541  0.81131422    -0.23400
C2073       C  0.51234164  0.42000263  0.80852999    -0.06200
C2074       C  0.53071324  0.40455376  0.78960533    -0.00300
C2075       C  0.52795228  0.36949784  0.79956737    -0.08800
C2076       C  0.51274769  0.35484835  0.83036956    -0.06200
C2077       C  0.49911104  0.37320370  0.85113050    -0.00300
C2078       C  0.49612672  0.40458706  0.83938901    -0.08700
C2079       C  0.47728948  0.42233808  0.85970351     0.61600
H2080       H  0.51241624  0.44520599  0.79982737     0.12300
H2081       H  0.51315397  0.32967552  0.83912077     0.12300
C2082       C  0.54141055  0.34756320  0.77816778     0.61900
F2083       F  0.47827994  0.45318628  0.84414733    -0.23300
F2084       F  0.49612938  0.43544296  0.88869532    -0.20600
F2085       F  0.43901533  0.39486367  0.86584741    -0.20300
F2086       F  0.58118810  0.36528017  0.77837358    -0.20400
F2087       F  0.52947988  0.34650425  0.74699148    -0.20700
F2088       F  0.52596669  0.30969433  0.78847363    -0.23400
C2089       C  0.52372446  0.17845803  0.97534448    -0.06200
C2090       C  0.56253198  0.20140645  0.98400967    -0.00300
C2091       C  0.57357758  0.23608180  0.00139692    -0.08800
C2092       C  0.54927218  0.25164025  0.00128886    -0.06200
C2093       C  0.51303584  0.23184960  0.98728035    -0.00300
C2094       C  0.49816939  0.19285175  0.97781261    -0.08700
C2095       C  0.45622181  0.16725847  0.96911088     0.61600
H2096       H  0.51446091  0.15089037  0.96379487     0.12300
H2097       H  0.55969942  0.28061582  0.01043990     0.12300
C2098       C  0.61099251  0.25887328  0.01924294     0.61900
F2099       F  0.44688350  0.12931308  0.96448515    -0.23300
F2100       F  0.44863703  0.18018933  0.94102425    -0.20600
F2101       F  0.43289180  0.16786436  0.99393395    -0.20300
F2102       F  0.63212628  0.29493808  0.00503513    -0.20400
F2103       F  0.63275408  0.24104799  0.01945512    -0.20700
F2104       F  0.60275795  0.26343722  0.05110307    -0.23400
C2105       C  0.64415409  0.47117032  0.94626312    -0.06200
C2106       C  0.66484419  0.46399215  0.96940257    -0.00300
C2107       C  0.64402707  0.43921975  0.99583728    -0.08800
C2108       C  0.60348594  0.41617245  0.99405864    -0.06200
C2109       C  0.58308417  0.41963014  0.96835279    -0.00300
C2110       C  0.60344860  0.45048727  0.94604882    -0.08700
C2111       C  0.58286915  0.46020427  0.92087251     0.61600
H2112       H  0.66028218  0.49156109  0.92697250     0.12300
H2113       H  0.58769209  0.39407772  0.01230699     0.12300
C2114       C  0.66230529  0.43619670  0.02642962     0.61900
F2115       F  0.56670025  0.43104249  0.89835871    -0.23300
F2116       F  0.60787806  0.49414866  0.90465154    -0.20600
F2117       F  0.55440063  0.46496067  0.93573173    -0.20300
F2118       F  0.70198079  0.45948266  0.02571843    -0.20400
F2119       F  0.65250982  0.39827700  0.03137950    -0.20700
F2120       F  0.64803568  0.44743521  0.05240443    -0.23400
C2121       C  0.32499614  0.23368058  0.90864186    -0.06200
C2122       C  0.34187343  0.27095820  0.92196798    -0.00300
C2123       C  0.32019276  0.28997840  0.92167455    -0.08800
C2124       C  0.28227703  0.27025751  0.90887373    -0.06200
C2125       C  0.26573637  0.23280281  0.89531757    -0.00300
C2126       C  0.28858218  0.21475518  0.89443349    -0.08700
C2127       C  0.27553687  0.17532275  0.87921689     0.61600
H2128       H  0.34081334  0.21862670  0.90956063     0.12300
H2129       H  0.26522181  0.28418377  0.90932786     0.12300
C2130       C  0.33639668  0.33033850  0.93528879     0.61900
F2131       F  0.30333549  0.16472162  0.88059586    -0.23300
F2132       F  0.26777037  0.17592689  0.84683325    -0.20600
F2133       F  0.24326656  0.14715759  0.89555127    -0.20300
F2134       F  0.36901649  0.35601006  0.91761655    -0.20400
F2135       F  0.34587500  0.33079301  0.96734862    -0.20700
F2136       F  0.31009361  0.34287347  0.93391121    -0.23400
C2137       C  0.85391028  0.52193363  0.08968336    -0.06200
C2138       C  0.82363778  0.51974611  0.10876001    -0.00300
C2139       C  0.79489637  0.52493958  0.09382344    -0.08800
C2140       C  0.79753603  0.53176509  0.06037526    -0.06200
C2141       C  0.82740565  0.53342540  0.04114561    -0.00300
C2142       C  0.85670818  0.52910599  0.05610138    -0.08700
C2143       C  0.89126103  0.53253733  0.03725174     0.61600
H2144       H  0.87580573  0.51848287  0.10146796     0.12300
H2145       H  0.77535129  0.53485316  0.04874320     0.12300
C2146       C  0.76043457  0.52185861  0.11247669     0.61900
F2147       F  0.91993209  0.53637732  0.05761074    -0.23300
F2148       F  0.90717872  0.56481282  0.01739089    -0.20600
F2149       F  0.87993515  0.49977447  0.01877185    -0.20300
F2150       F  0.77211809  0.55385401  0.13201644    -0.20400
F2151       F  0.74351132  0.48870737  0.13105552    -0.20700
F2152       F  0.73245517  0.51976884  0.09217100    -0.23400
C2153       C  0.94631870  0.61552840  0.24135000    -0.06200
C2154       C  0.93628735  0.58635881  0.21814146    -0.00300
C2155       C  0.96478635  0.57747776  0.20754160    -0.08800
C2156       C  0.99999814  0.59373603  0.22379410    -0.06200
C2157       C  0.00916070  0.62092469  0.24849130    -0.00300
C2158       C  0.98272002  0.63350000  0.25641984    -0.08700
C2159       C  0.99167971  0.66353665  0.28235268     0.61600
H2160       H  0.92451821  0.62226081  0.24920828     0.12300
H2161       H  0.02088296  0.58528613  0.21696268     0.12300
C2162       C  0.95835144  0.54982353  0.17991982     0.61900
F2163       F  0.96233210  0.67182603  0.28632217    -0.23300
F2164       F  0.02523921  0.69750280  0.27429963    -0.20600
F2165       F  0.99623776  0.64974746  0.31139685    -0.20300
F2166       F  0.93257834  0.54919454  0.15786244    -0.20400
F2167       F  0.94449623  0.51303781  0.19215476    -0.20700
F2168       F  0.99270621  0.56117443  0.16331099    -0.23400
C2169       C  0.42442511  0.14570421  0.56818007    -0.06200
C2170       C  0.44760942  0.13986632  0.54571243    -0.00300
C2171       C  0.47410970  0.12928704  0.55766827    -0.08800
C2172       C  0.47783386  0.12748599  0.59137320    -0.06200
C2173       C  0.45544587  0.13429852  0.61401555    -0.00300
C2174       C  0.42686958  0.14210685  0.60199234    -0.08700
C2175       C  0.39861001  0.14662444  0.62405616     0.61600
H2176       H  0.40377477  0.15276419  0.55883634     0.12300
H2177       H  0.49874438  0.12063237  0.60038454     0.12300
C2178       C  0.49942999  0.12065688  0.53543987     0.61900
F2179       F  0.37172570  0.15071985  0.60679574    -0.23300
F2180       F  0.41832343  0.17917780  0.64295874    -0.20600
F2181       F  0.37836739  0.11420291  0.64349653    -0.20300
F2182       F  0.52069257  0.15151730  0.51488185    -0.20400
F2183       F  0.47672658  0.08760305  0.51776120    -0.20700
F2184       F  0.52529451  0.11459050  0.55233772    -0.23400
C2185       C  0.32484027  0.06524937  0.40010104    -0.06200
C2186       C  0.32924391  0.07985563  0.43181895    -0.00300
C2187       C  0.29643273  0.07555724  0.44906314    -0.08800
C2188       C  0.26089565  0.05924802  0.43312594    -0.06200
C2189       C  0.25710938  0.04707601  0.40075572    -0.00300
C2190       C  0.28918938  0.04910103  0.38412318    -0.08700
C2191       C  0.28604618  0.03615281  0.34919393     0.61600
H2192       H  0.35022160  0.06891154  0.38715194     0.12300
H2193       H  0.23596603  0.05743907  0.44544904     0.12300
C2194       C  0.29888067  0.08810021  0.48411563     0.61900
F2195       F  0.32101222  0.04254388  0.33666069    -0.23300
F2196       F  0.27403731  0.05624661  0.33029916    -0.20600
F2197       F  0.25950700  0.99704311  0.34728385    -0.20300
F2198       F  0.32069643  0.12788691  0.48627754    -0.20400
F2199       F  0.31577988  0.07192406  0.50213382    -0.20700
F2200       F  0.26269923  0.07634309  0.49757458    -0.23400
C2201       C  0.44810386  0.36236216  0.09645781    -0.06200
C2202       C  0.44605929  0.33316856  0.11645595    -0.00300
C2203       C  0.43791869  0.29745497  0.10190097    -0.08800
C2204       C  0.43442102  0.29363337  0.06804884    -0.06200
C2205       C  0.43832087  0.32345294  0.04793545    -0.00300
C2206       C  0.44398123  0.35816327  0.06256391    -0.08700
C2207       C  0.44547518  0.39083473  0.04299677     0.61600
H2208       H  0.45351690  0.38908777  0.10762622     0.12300
H2209       H  0.42971053  0.26721555  0.05678207     0.12300
C2210       C  0.43374845  0.26333235  0.12123466     0.61900
F2211       F  0.44348725  0.41788126  0.06266664    -0.23300
F2212       F  0.41452982  0.37625334  0.02235418    -0.20600
F2213       F  0.47973451  0.40973054  0.02527089    -0.20300
F2214       F  0.40220188  0.24966297  0.14220525    -0.20400
F2215       F  0.46686108  0.27450541  0.13842972    -0.20700
F2216       F  0.42808625  0.23284126  0.10161233    -0.23400
C2217       C  0.67382808  0.49073320  0.18310018    -0.06200
C2218       C  0.69250133  0.46955561  0.18787884    -0.00300
C2219       C  0.67144924  0.42923583  0.18122687    -0.08800
C2220       C  0.63118325  0.41018546  0.18113623    -0.06200
C2221       C  0.61163394  0.43056248  0.18116774    -0.00300
C2222       C  0.63349460  0.47128937  0.17720760    -0.08700
C2223       C  0.61448574  0.49323042  0.16578869     0.61600
H2224       H  0.69033262  0.52191726  0.18500153     0.12300
H2225       H  0.61471616  0.37897326  0.18199955     0.12300
C2226       C  0.68997696  0.40504162  0.17467897     0.61900
F2227       F  0.58498076  0.48788324  0.18665334    -0.23300
F2228       F  0.59918560  0.47964855  0.13560132    -0.20600
F2229       F  0.64070925  0.53244368  0.16320190    -0.20300
F2230       F  0.68406461  0.38162225  0.20110634    -0.20400
F2231       F  0.72902262  0.42764954  0.16786190    -0.20700
F2232       F  0.67330687  0.38194070  0.14792563    -0.23400
C2233       C  0.44297201  0.26587865  0.36825664    -0.06200
C2234       C  0.41931257  0.22590749  0.36466279    -0.00300
C2235       C  0.39976258  0.21087842  0.33537740    -0.08800
C2236       C  0.40961474  0.23613436  0.30863922    -0.06200
C2237       C  0.43744657  0.27565114  0.31121961    -0.00300
C2238       C  0.45245582  0.29112590  0.34195719    -0.08700
C2239       C  0.47829523  0.33408624  0.34707596     0.61600
H2240       H  0.45696471  0.27695831  0.39119817     0.12300
H2241       H  0.39680466  0.22497673  0.28533265     0.12300
C2242       C  0.36724341  0.16919635  0.33335114     0.61900
F2243       F  0.48481201  0.34320267  0.37958600    -0.23300
F2244       F  0.46048635  0.35278686  0.33475651    -0.20600
F2245       F  0.51363106  0.34716906  0.33165587    -0.20300
F2246       F  0.33741919  0.16384127  0.35407209    -0.20400
F2247       F  0.37953665  0.14430701  0.34241543    -0.20700
F2248       F  0.35304725  0.15960350  0.30233601    -0.23400
C2249       C  0.37073453  0.39173993  0.21307273    -0.06200
C2250       C  0.38948254  0.38181411  0.23609210    -0.00300
C2251       C  0.38588925  0.38899492  0.26922802    -0.08800
C2252       C  0.36647845  0.40888160  0.27803380    -0.06200
C2253       C  0.34952321  0.42087234  0.25488706    -0.00300
C2254       C  0.35023246  0.41067636  0.22195504    -0.08700
C2255       C  0.33113803  0.42151300  0.19609172     0.61600
H2256       H  0.37382963  0.38613853  0.18783193     0.12300
H2257       H  0.36554470  0.41646386  0.30312103     0.12300
C2258       C  0.40344656  0.37633235  0.29500935     0.61900
F2259       F  0.33705413  0.41101011  0.16546737    -0.23300
F2260       F  0.34596864  0.46097713  0.19610218    -0.20600
F2261       F  0.29176724  0.40288834  0.20227190    -0.20300
F2262       F  0.44247159  0.39239024  0.28876444    -0.20400
F2263       F  0.38603837  0.33650780  0.29468171    -0.20700
F2264       F  0.39867897  0.38756665  0.32570987    -0.23400
C2265       C  0.67597036  0.62771018  0.39493616    -0.06200
C2266       C  0.67919304  0.62417522  0.42840315    -0.00300
C2267       C  0.69676952  0.65774774  0.44772893    -0.08800
C2268       C  0.71383426  0.69421494  0.43248243    -0.06200
C2269       C  0.71450146  0.69773947  0.39861769    -0.00300
C2270       C  0.69385920  0.66422771  0.37961120    -0.08700
C2271       C  0.69353260  0.66727797  0.34309916     0.61600
H2272       H  0.66279449  0.60167111  0.38043573     0.12300
H2273       H  0.72993600  0.72023628  0.44664760     0.12300
C2274       C  0.69909304  0.65468895  0.48409182     0.61900
F2275       F  0.66850579  0.63198187  0.32917974    -0.23300
F2276       F  0.73025264  0.68032761  0.33040155    -0.20600
F2277       F  0.68182418  0.69308007  0.33497683    -0.20300
F2278       F  0.72195717  0.63914847  0.49106359    -0.20400
F2279       F  0.66239932  0.63097780  0.49697961    -0.20700
F2280       F  0.71462407  0.69038091  0.49894277    -0.23400
C2281       C  0.66007299  0.55349823  0.56095747    -0.06200
C2282       C  0.64445216  0.51845331  0.54394595    -0.00300
C2283       C  0.61930276  0.48320654  0.56044786    -0.08800
C2284       C  0.61161903  0.48439438  0.59364590    -0.06200
C2285       C  0.62777541  0.51924838  0.61071846    -0.00300
C2286       C  0.65171803  0.55456279  0.59416079    -0.08700
C2287       C  0.66676964  0.59310629  0.61114045     0.61600
H2288       H  0.67836910  0.58016453  0.54784270     0.12300
H2289       H  0.59355371  0.45775902  0.60688995     0.12300
C2290       C  0.60108987  0.44424440  0.54351863     0.61900
F2291       F  0.68521105  0.62385247  0.58970513    -0.23300
F2292       F  0.69285043  0.59763422  0.63448755    -0.20600
F2293       F  0.63620219  0.59459887  0.62565970    -0.20300
F2294       F  0.62893809  0.44073687  0.52607492    -0.20400
F2295       F  0.57290431  0.44085277  0.52287336    -0.20700
F2296       F  0.58379828  0.41378855  0.56531834    -0.23400
C2297       C  0.74772715  0.57745612  0.33375662    -0.06200
C2298       C  0.76313182  0.56957604  0.36094113    -0.00300
C2299       C  0.79883404  0.57072105  0.35761491    -0.08800
C2300       C  0.81329721  0.57113843  0.32620129    -0.06200
C2301       C  0.79272400  0.57025283  0.29898050    -0.00300
C2302       C  0.76232107  0.57791934  0.30248265    -0.08700
C2303       C  0.74288749  0.58215356  0.27310147     0.61600
H2304       H  0.72120951  0.57815298  0.33670524     0.12300
H2305       H  0.83773668  0.56698037  0.32273134     0.12300
C2306       C  0.81860392  0.56615426  0.38652030     0.61900
F2307       F  0.72094596  0.54658856  0.25853110    -0.23300
F2308       F  0.77062312  0.60736844  0.25115745    -0.20600
F2309       F  0.71917818  0.59672881  0.28142462    -0.20300
F2310       F  0.79621444  0.52926586  0.39896132    -0.20400
F2311       F  0.82338966  0.59296998  0.40991601    -0.20700
F2312       F  0.85473755  0.57190476  0.37829108    -0.23400
C2313       C  0.60564057  0.49545508  0.32194696    -0.06200
C2314       C  0.58655909  0.48059545  0.35155486    -0.00300
C2315       C  0.54609145  0.45569593  0.35271418    -0.08800
C2316       C  0.52677274  0.44222874  0.32339868    -0.06200
C2317       C  0.54676233  0.45247476  0.29355878    -0.00300
C2318       C  0.58603847  0.48226219  0.29270547    -0.08700
C2319       C  0.60752279  0.49871634  0.26121351     0.61600
H2320       H  0.63652191  0.51561435  0.32187524     0.12300
H2321       H  0.49653709  0.42081035  0.32377461     0.12300
C2322       C  0.52403601  0.44085689  0.38459206     0.61900
F2323       F  0.64454378  0.52932079  0.26582884    -0.23300
F2324       F  0.58782611  0.51211710  0.24363272    -0.20600
F2325       F  0.61013798  0.47041113  0.24433302    -0.20300
F2326       F  0.53028649  0.47164633  0.40396184    -0.20400
F2327       F  0.53642981  0.41895549  0.40024817    -0.20700
F2328       F  0.48463331  0.41801973  0.38018729    -0.23400
C2329       C  0.54427808  0.36500250  0.46248990    -0.06200
C2330       C  0.57847683  0.37935737  0.44347001    -0.00300
C2331       C  0.58505101  0.35233649  0.42598422    -0.08800
C2332       C  0.55950187  0.31278225  0.43083190    -0.06200
C2333       C  0.52509822  0.29827760  0.44913298    -0.00300
C2334       C  0.51674594  0.32483705  0.46469612    -0.08700
C2335       C  0.47816431  0.31104821  0.48169977     0.61600
H2336       H  0.53862142  0.38557368  0.47477629     0.12300
H2337       H  0.56548697  0.29229265  0.41875307     0.12300
C2338       C  0.61665660  0.36406748  0.39995419     0.61900
F2339       F  0.47473838  0.34156758  0.49346095    -0.23300
F2340       F  0.47405264  0.28739613  0.50745635    -0.20600
F2341       F  0.44866767  0.29061089  0.46017985    -0.20300
F2342       F  0.65254230  0.38077362  0.41388195    -0.20400
F2343       F  0.61540205  0.38958899  0.37841542    -0.20700
F2344       F  0.61208596  0.33277615  0.38201284    -0.23400
C2345       C  0.84409635  0.35893035  0.54789781    -0.06200
C2346       C  0.81650331  0.32043525  0.53986096    -0.00300
C2347       C  0.79809499  0.29306359  0.56515361    -0.08800
C2348       C  0.80777384  0.30545071  0.59725014    -0.06200
C2349       C  0.83496558  0.34402602  0.60543785    -0.00300
C2350       C  0.85364512  0.37137899  0.58013677    -0.08700
C2351       C  0.88343485  0.41341186  0.58663267     0.61600
H2352       H  0.85785570  0.37981176  0.52851169     0.12300
H2353       H  0.79292993  0.28465560  0.61649933     0.12300
C2354       C  0.76845036  0.25088023  0.55884510     0.61900
F2355       F  0.90093881  0.43361721  0.55835647    -0.23300
F2356       F  0.91210018  0.41551420  0.60597707    -0.20600
F2357       F  0.86583840  0.43144011  0.60184074    -0.20300
F2358       F  0.78405894  0.23504165  0.53798658    -0.20400
F2359       F  0.73587182  0.24813841  0.54550233    -0.20700
F2360       F  0.75692179  0.22895681  0.58696773    -0.23400
C2361       C  0.84015554  0.43002914  0.35572199    -0.06200
C2362       C  0.82970615  0.39172237  0.34856272    -0.00300
C2363       C  0.82903264  0.38073687  0.31584819    -0.08800
C2364       C  0.83569021  0.40761680  0.29133400    -0.06200
C2365       C  0.84145382  0.44440476  0.29849632    -0.00300
C2366       C  0.84561903  0.45658259  0.33121983    -0.08700
C2367       C  0.85348274  0.49645255  0.34065579     0.61600
H2368       H  0.84087758  0.43819756  0.38087677     0.12300
H2369       H  0.83254393  0.39854076  0.26627406     0.12300
C2370       C  0.81968350  0.34041926  0.30666235     0.61900
F2371       F  0.86633716  0.50546760  0.37210765    -0.23300
F2372       F  0.81988033  0.49773129  0.33861610    -0.20600
F2373       F  0.88162527  0.52411066  0.32035249    -0.20300
F2374       F  0.78093049  0.31482354  0.31276488    -0.20400
F2375       F  0.84188003  0.33009631  0.32443725    -0.20700
F2376       F  0.82721483  0.33796004  0.27414124    -0.23400
C2377       C  0.63359230  0.23832854  0.47370685    -0.06200
C2378       C  0.65257417  0.22108561  0.45855721    -0.00300
C2379       C  0.62983319  0.18348203  0.44535252    -0.08800
C2380       C  0.58937940  0.16679545  0.44415993    -0.06200
C2381       C  0.57129418  0.18657055  0.45569772    -0.00300
C2382       C  0.59323895  0.22138758  0.47311554    -0.08700
C2383       C  0.57579340  0.24215640  0.49108479     0.61600
H2384       H  0.65051906  0.26607899  0.48517279     0.12300
H2385       H  0.57202179  0.13988461  0.43141898     0.12300
C2386       C  0.64821234  0.16274502  0.42944002     0.61900
F2387       F  0.58775781  0.24793961  0.52283061    -0.23300
F2388       F  0.53588255  0.22177827  0.49164759    -0.20600
F2389       F  0.58860407  0.27766281  0.47672451    -0.20300
F2390       F  0.67160151  0.15862651  0.45114761    -0.20400
F2391       F  0.66977673  0.18400197  0.40296110    -0.20700
F2392       F  0.62087836  0.12624890  0.41898793    -0.23400
C2393       C  0.79110206  0.44106361  0.46354006    -0.06200
C2394       C  0.76274771  0.40169253  0.46214827    -0.00300
C2395       C  0.72375029  0.39077913  0.46870209    -0.08800
C2396       C  0.71358055  0.41946404  0.46993456    -0.06200
C2397       C  0.74128090  0.45870245  0.46624209    -0.00300
C2398       C  0.78098772  0.46998727  0.46599490    -0.08700
C2399       C  0.81351876  0.51151869  0.46854050     0.61600
H2400       H  0.82125631  0.44946934  0.46066303     0.12300
H2401       H  0.68333827  0.41107097  0.47149074     0.12300
C2402       C  0.69269032  0.34902172  0.47390324     0.61900
F2403       F  0.83252881  0.51588544  0.49717706    -0.23300
F2404       F  0.80071860  0.53759651  0.46852917    -0.20600
F2405       F  0.83953823  0.52026407  0.44303749    -0.20300
F2406       F  0.70703420  0.33050654  0.49214785    -0.20400
F2407       F  0.68057011  0.33080162  0.44439500    -0.20700
F2408       F  0.66102765  0.34617788  0.49049634    -0.23400
C2409       C  0.92986108  0.26596749  0.41334831    -0.06200
C2410       C  0.90916463  0.23440046  0.39234676    -0.00300
C2411       C  0.87211967  0.22624953  0.38189784    -0.08800
C2412       C  0.85736990  0.24936560  0.39318173    -0.06200
C2413       C  0.87661227  0.27875328  0.41577620    -0.00300
C2414       C  0.91361626  0.28771912  0.42590613    -0.08700
C2415       C  0.93476928  0.31904979  0.45075752     0.61600
H2416       H  0.95788115  0.27205139  0.42136438     0.12300
H2417       H  0.82925762  0.24321297  0.38562050     0.12300
C2418       C  0.84693249  0.19258444  0.35979447     0.61900
F2419       F  0.97115009  0.32485994  0.45653360    -0.23300
F2420       F  0.91382354  0.30878338  0.47963472    -0.20600
F2421       F  0.93892395  0.35345805  0.43983118    -0.20300
F2422       F  0.83218753  0.15810218  0.37657366    -0.20400
F2423       F  0.86827376  0.19249291  0.33325538    -0.20700
F2424       F  0.81593975  0.19471833  0.34835596    -0.23400
C2425       C  0.67051381  0.16303518  0.10401769    -0.06200
C2426       C  0.63205544  0.14823816  0.11511527    -0.00300
C2427       C  0.60261162  0.13641268  0.09204893    -0.08800
C2428       C  0.61285840  0.13921276  0.05903441    -0.06200
C2429       C  0.65145201  0.15462750  0.04769399    -0.00300
C2430       C  0.68100774  0.16724929  0.07088519    -0.08700
C2431       C  0.72346558  0.18563219  0.06138420     0.61600
H2432       H  0.69285576  0.17188633  0.12176770     0.12300
H2433       H  0.59009636  0.12980950  0.04165043     0.12300
C2434       C  0.56066725  0.12201161  0.10166778     0.61900
F2435       F  0.74679717  0.19471203  0.08806383    -0.23300
F2436       F  0.73528183  0.21952424  0.04444284    -0.20600
F2437       F  0.72912473  0.16035443  0.04253281    -0.20300
F2438       F  0.55848853  0.14899073  0.12122699    -0.20400
F2439       F  0.54528945  0.08716569  0.11796511    -0.20700
F2440       F  0.53792234  0.11614977  0.07507936    -0.23400
C2441       C  0.55179814  0.23373292  0.18599635    -0.06200
C2442       C  0.53559565  0.20325184  0.20837116    -0.00300
C2443       C  0.50162280  0.19538151  0.22581681    -0.08800
C2444       C  0.48709161  0.22058091  0.22260596    -0.06200
C2445       C  0.50589739  0.25372144  0.20298249    -0.00300
C2446       C  0.53755442  0.25920712  0.18287542    -0.08700
C2447       C  0.55778694  0.29124669  0.15794852     0.61600
H2448       H  0.57715513  0.23896845  0.17197989     0.12300
H2449       H  0.46279585  0.21633086  0.23763381     0.12300
C2450       C  0.48122104  0.16073861  0.24813281     0.61900
F2451       F  0.55547230  0.27501633  0.12781815    -0.23300
F2452       F  0.59628093  0.31371153  0.16566927    -0.20600
F2453       F  0.54205739  0.31475437  0.15577615    -0.20300
F2454       F  0.50429126  0.16554490  0.27414402    -0.20400
F2455       F  0.47368838  0.12787129  0.23120632    -0.20700
F2456       F  0.44645970  0.15564123  0.26001183    -0.23400
C2457       C  0.69705772  0.15723749  0.32964648    -0.06200
C2458       C  0.70772882  0.18042643  0.30185456    -0.00300
C2459       C  0.74433320  0.21458499  0.30054032    -0.08800
C2460       C  0.76255794  0.23059099  0.32984082    -0.06200
C2461       C  0.74711576  0.21108869  0.35916638    -0.00300
C2462       C  0.71850851  0.17141243  0.35808369    -0.08700
C2463       C  0.71377662  0.14272886  0.38387623     0.61600
H2464       H  0.67160871  0.12860424  0.32936389     0.12300
H2465       H  0.78748540  0.25940826  0.33027293     0.12300
C2466       C  0.76356599  0.23489376  0.26902535     0.61900
F2467       F  0.67512377  0.11700838  0.39019785    -0.23300
F2468       F  0.73129925  0.16034024  0.41241671    -0.20600
F2469       F  0.73055083  0.12207132  0.37247505    -0.20300
F2470       F  0.75103160  0.25969556  0.26046843    -0.20400
F2471       F  0.75539517  0.20829149  0.24456758    -0.20700
F2472       F  0.80330569  0.25606109  0.27205207    -0.23400
C2473       C  0.51220000  0.09605332  0.35994103    -0.06200
C2474       C  0.47857062  0.09746010  0.35508018    -0.00300
C2475       C  0.46177986  0.08886923  0.32423591    -0.08800
C2476       C  0.48318342  0.08648040  0.29782794    -0.06200
C2477       C  0.52082675  0.09363602  0.30200896    -0.00300
C2478       C  0.53293770  0.09264255  0.33373809    -0.08700
C2479       C  0.56837449  0.09004576  0.34077248     0.61600
H2480       H  0.52393328  0.10057393  0.38404315     0.12300
H2481       H  0.47259950  0.08377093  0.27356653     0.12300
C2482       C  0.42270390  0.08460204  0.31929483     0.61900
F2483       F  0.55882368  0.06126239  0.36349101    -0.23300
F2484       F  0.59688391  0.12485564  0.35302840    -0.20600
F2485       F  0.58257472  0.08094837  0.31343404    -0.20300
F2486       F  0.41094084  0.07551015  0.28758098    -0.20400
F2487       F  0.42425193  0.11878608  0.32709118    -0.20700
F2488       F  0.39573278  0.05536863  0.33914816    -0.23400
C2489       C  0.72620277  0.29953416  0.19125017    -0.06200
C2490       C  0.70555549  0.28261874  0.22026694    -0.00300
C2491       C  0.70907328  0.30686283  0.24679708    -0.08800
C2492       C  0.73176519  0.34671372  0.24279609    -0.06200
C2493       C  0.75056473  0.36437976  0.21339879    -0.00300
C2494       C  0.74866483  0.34031999  0.18718565    -0.08700
C2495       C  0.76967429  0.35715810  0.15523434     0.61600
H2496       H  0.72350658  0.28054377  0.17145685     0.12300
H2497       H  0.73403624  0.36461385  0.26325351     0.12300
C2498       C  0.68886540  0.29168582  0.27966328     0.61900
F2499       F  0.80895719  0.37947496  0.16024823    -0.23300
F2500       F  0.75657448  0.37970767  0.14174464    -0.20600
F2501       F  0.76377300  0.32860243  0.13320183    -0.20300
F2502       F  0.69515036  0.26312976  0.29080496    -0.20400
F2503       F  0.64967429  0.27741773  0.27710119    -0.20700
F2504       F  0.70235381  0.32023516  0.30308284    -0.23400
C2505       C  0.55422245  0.96726588  0.21558197    -0.06200
C2506       C  0.55150365  0.96106856  0.24918999    -0.00300
C2507       C  0.57563913  0.99204794  0.26978437    -0.08800
C2508       C  0.59858909  0.02927307  0.25630044    -0.06200
C2509       C  0.59699392  0.03631608  0.22330997    -0.00300
C2510       C  0.57597555  0.00477606  0.20233358    -0.08700
C2511       C  0.57483053  0.01142048  0.16640373     0.61600
H2512       H  0.53656161  0.94306287  0.20004399     0.12300
H2513       H  0.61470706  0.05381311  0.27203982     0.12300
C2514       C  0.57590842  0.98615753  0.30599351     0.61900
F2515       F  0.55615875  0.97696938  0.14955165    -0.23300
F2516       F  0.61214268  0.03296478  0.15406892    -0.20600
F2517       F  0.55557002  0.03125704  0.16136719    -0.20300
F2518       F  0.57934136  0.95417411  0.31193098    -0.20400
F2519       F  0.54197899  0.98062321  0.32016122    -0.20700
F2520       F  0.60653238  0.01778118  0.32044939    -0.23400
loop_ 
_geom_bond_atom_site_label_1 
_geom_bond_atom_site_label_2 
_geom_bond_distance 
_geom_bond_site_symmetry_2 
_ccdc_geom_bond_type 
O1           C16   1.277       .  A
O1           Al9   1.974       .  S
C2           O12   1.271       .  A
C2            O3   1.261       .  A
C2         C2477   1.482       .  S
O3           Al5   1.879       .  S
O4            C6   1.258       .  A
O4           Al5   1.919       .  S
Al5          O13   1.934       .  S
Al5          O15   1.864       .  S
Al5          O14   1.767       .  S
C6           O19   1.248       .  A
C6         C2458   1.471       .  S
O7           C17   1.273       .  A
O7           Al9   1.958       .  S
O8           C21   1.261       .  A
O8          Al18   1.925       .  S
Al9          O22   1.866       .  S
Al9          O19   1.889       .  S
Al9          O14   1.786       .  S
O10          C17   1.256       .  A
O10         Al18   1.855       .  S
O11          C20   1.263       .  A
O11         Al18   1.921       .  S
O12         Al18   1.949       .  S
O13          C20   1.265       .  A
O14         Al18   1.784       .  S
O15          C16   1.257       .  A
C16        C2490   1.486       .  S
C17        C2509   1.474       .  S
C20        C2442   1.487       .  S
C21          O22   1.252       .  A
C21        C2426   1.494       .  S
O23          C38   1.262       .  A
O23         Al31   1.908       .  S
C24          O34   1.269       .  A
C24          O25   1.261       .  A
C24        C2461   1.478       .  S
O25         Al27   1.901       .  S
O26          C28   1.266       .  A
O26         Al27   1.927       .  S
Al27         O35   1.935       .  S
Al27         O37   1.916       .  S
Al27         O36   1.793       .  S
C28          O41   1.268       .  A
C28        C2413   1.485       .  S
O29          C39   1.253       .  A
O29         Al31   1.900       .  S
O30          C43   1.271       .  A
O30         Al40   1.925       .  S
Al31         O44   1.925       .  S
Al31         O41   1.931       .  S
Al31         O36   1.794       .  S
O32          C39   1.253       .  A
O32         Al40   1.898       .  S
O33          C42   1.254       .  A
O33         Al40   1.893       .  S
O34         Al40   1.917       .  S
O35          C42   1.259       .  A
O36         Al40   1.771       .  S
O37          C38   1.266       .  A
C38        C2346   1.494       .  S
C39        C2362   1.483       .  S
C42        C2378   1.494       .  S
C43          O44   1.271       .  A
C43        C2394   1.491       .  S
O45          C60   1.251       .  A
O45         Al53   1.865       .  S
C46          O56   1.259       .  A
C46          O47   1.271       .  A
C46        C2298   1.479       .  S
O47         Al49   1.960       .  S
O48          C50   1.259       .  A
O48         Al49   1.874       .  S
Al49         O57   1.930       .  S
Al49         O59   1.937       .  S
Al49         O58   1.787       .  S
C50          O63   1.270       .  A
C50        C2266   1.478       .  S
O51          C61   1.249       .  A
O51         Al53   1.880       .  S
O52          C65   1.259       .  A
O52         Al62   1.875       .  S
Al53         O66   1.974       .  S
Al53         O63   1.947       .  S
Al53         O58   1.784       .  S
O54          C61   1.256       .  A
O54         Al62   1.906       .  S
O55          C64   1.261       .  A
O55         Al62   1.919       .  S
O56         Al62   1.870       .  S
O57          C64   1.264       .  A
O58         Al62   1.767       .  S
O59          C60   1.265       .  A
C60        C2282   1.484       .  S
C61        C2314   1.462       .  S
C64        C2397   1.482       .  S
C65          O66   1.277       .  A
C65        C2330   1.502       .  S
O67          C82   1.275       .  A
O67         Al75   1.966       .  S
C68          O78   1.272       .  A
C68          O69   1.260       .  A
C68        C2317   1.481       .  S
O69         Al71   1.874       .  S
O70          C72   1.258       .  A
O70         Al71   1.916       .  S
Al71         O79   1.901       .  S
Al71         O81   1.882       .  S
Al71         O80   1.779       .  S
C72          O85   1.255       .  A
C72        C2237   1.481       .  S
O73          C83   1.267       .  A
O73         Al75   1.951       .  S
O74          C87   1.269       .  A
O74         Al84   1.939       .  S
Al75         O88   1.873       .  S
Al75         O85   1.903       .  S
Al75         O80   1.795       .  S
O76          C83   1.258       .  A
O76         Al84   1.890       .  S
O77          C86   1.258       .  A
O77         Al84   1.921       .  S
O78         Al84   1.963       .  S
O79          C86   1.259       .  A
O80         Al84   1.800       .  S
O81          C82   1.260       .  A
C82        C2445   1.488       .  S
C83        C2250   1.493       .  S
C86        C2221   1.485       .  S
C87          O88   1.253       .  A
C87        C2202   1.502       .  S
O89         C104   1.247       .  A
O89         Al97   1.870       .  S
C90         O100   1.269       .  A
C90          O91   1.275       .  A
C90        C2234   1.472       .  S
O91         Al93   1.949       .  S
O92          C94   1.262       .  A
O92         Al93   1.896       .  S
Al93        O101   1.950       .  S
Al93        O103   1.942       .  S
Al93        O102   1.796       .  S
C94         O107   1.267       .  A
C94        C2186   1.487       .  S
O95         C105   1.246       .  A
O95         Al97   1.902       .  S
O96         C109   1.268       .  A
O96        Al106   1.880       .  S
Al97        O110   1.959       .  S
Al97        O107   1.924       .  S
Al97        O102   1.791       .  S
O98         C105   1.246       .  A
O98        Al106   1.882       .  S
O99         C108   1.253       .  A
O99        Al106   1.884       .  S
O100       Al106   1.898       .  S
O101        C108   1.265       .  A
O102       Al106   1.775       .  S
O103        C104   1.264       .  A
C104       C2170   1.506       .  S
C105       C2474   1.469       .  S
C108       C2333   1.495       .  S
C109        O110   1.280       .  A
C109       C2381   1.479       .  S
O111        C126   1.283       .  A
O111       Al119   1.994       .  S
C112        O122   1.275       .  A
C112        O113   1.264       .  A
C112       C2365   1.482       .  S
O113       Al115   1.886       .  S
O114        C116   1.248       .  A
O114       Al115   1.885       .  S
Al115       O123   1.874       .  S
Al115       O125   1.854       .  S
Al115       O124   1.776       .  S
C116        O129   1.245       .  A
C116       C2301   1.467       .  S
O117        C127   1.271       .  A
O117       Al119   1.951       .  S
O118        C131   1.265       .  A
O118       Al128   1.939       .  S
Al119       O132   1.845       .  S
Al119       O129   1.897       .  S
Al119       O124   1.792       .  S
O120        C127   1.255       .  A
O120       Al128   1.860       .  S
O121        C130   1.260       .  A
O121       Al128   1.929       .  S
O122       Al128   1.949       .  S
O123        C130   1.255       .  A
O124       Al128   1.799       .  S
O125        C126   1.261       .  A
C126       C2218   1.497       .  S
C127       C2154   1.492       .  S
C130       C2493   1.501       .  S
C131        O132   1.245       .  A
C131       C2138   1.487       .  S
O133        C148   1.274       .  A
O133       Al141   1.978       .  S
C134        O144   1.272       .  A
C134        O135   1.254       .  A
C134       C2058   1.462       .  S
O135       Al137   1.843       .  S
O136        C138   1.263       .  A
O136       Al137   1.904       .  S
Al137       O145   1.894       .  S
Al137       O147   1.884       .  S
Al137       O146   1.776       .  S
C138        O151   1.260       .  A
C138       C2077   1.479       .  S
O139        C149   1.262       .  A
O139       Al141   1.958       .  S
O140        C153   1.275       .  A
O140       Al150   1.937   1_554  S
Al141       O154   1.886       .  S
Al141       O151   1.909       .  S
Al141       O146   1.801       .  S
O142        C149   1.249       .  A
O142       Al150   1.848       .  S
O143        C152   1.252       .  A
O143       Al150   1.905       .  S
O144       Al150   1.948       .  S
O145        C152   1.254       .  A
O146       Al150   1.784       .  S
O147        C148   1.259       .  A
C148       C2109   1.490       .  S
C149       C2122   1.512       .  S
C152       C2093   1.478       .  S
C153        O154   1.262   1_554  A
C153       C2205   1.499       .  S
O155        C170   1.258       .  A
O155       Al163   1.872       .  S
C156        O166   1.260       .  A
C156        O157   1.273       .  A
C156       C2074   1.484       .  S
O157       Al159   1.958       .  S
O158        C160   1.254       .  A
O158       Al159   1.877       .  S
Al159       O167   1.908       .  S
Al159       O169   1.934       .  S
Al159       O168   1.792       .  S
C160        O173   1.263       .  A
C160       C2042   1.505       .  S
O161        C171   1.258       .  A
O161       Al163   1.903       .  S
O162        C175   1.258       .  A
O162       Al172   1.873       .  S
Al163       O176   1.973       .  S
Al163       O173   1.948       .  S
Al163       O168   1.805       .  S
O164        C171   1.262       .  A
O164       Al172   1.914       .  S
O165        C174   1.254       .  A
O165       Al172   1.890       .  S
O166       Al172   1.875       .  S
O167        C174   1.253       .  A
O168       Al172   1.777       .  S
O169        C170   1.270       .  A
C170       C2285   1.477       .  S
C171       C2010   1.473       .  S
C174       C1994   1.477       .  S
C175        O176   1.271       .  A
C175       C2026   1.499       .  S
O177        C192   1.264       .  A
O177       Al185   1.915       .  S
C178        O188   1.261       .  A
C178        O179   1.275       .  A
C178       C1962   1.501       .  S
O179       Al181   1.959       .  S
O180        C182   1.259       .  A
O180       Al181   1.913       .  S
Al181       O189   1.929       .  S
Al181       O191   1.928       .  S
Al181       O190   1.788       .  S
C182        O195   1.257       .  A
C182       C1978   1.492       .  S
O183        C193   1.262       .  A
O183       Al185   1.904       .  S
O184        C197   1.254       .  A
O184       Al194   1.883       .  S
Al185       O198   1.916       .  S
Al185       O195   1.916       .  S
Al185       O190   1.793       .  S
O186        C193   1.258       .  A
O186       Al194   1.890       .  S
O187        C196   1.259       .  A
O187       Al194   1.907       .  S
O188       Al194   1.892       .  S
O189        C196   1.261       .  A
O190       Al194   1.780       .  S
O191        C192   1.274       .  A
C192       C2173   1.511       .  S
C193       C2061   1.481       .  S
C196       C1946   1.486       .  S
C197        O198   1.257       .  A
C197       C1997   1.480       .  S
O199        C214   1.274       .  A
O199       Al207   1.971       .  S
C200        O210   1.277       .  A
C200        O201   1.256       .  A
C200       C1914   1.480       .  S
O201       Al203   1.857       .  S
O202        C204   1.265       .  A
O202       Al203   1.929       .  S
Al203       O211   1.905       .  S
Al203       O213   1.868       .  S
Al203       O212   1.771       .  S
C204        O217   1.259       .  A
C204       C1965   1.484       .  S
O205        C215   1.262       .  A
O205       Al207   1.939       .  S
O206        C219   1.274   1_556  A
O206       Al216   1.957       .  S
Al207       O220   1.847       .  S
Al207       O217   1.912       .  S
Al207       O212   1.794       .  S
O208        C215   1.251       .  A
O208       Al216   1.873       .  S
O209        C218   1.250       .  A
O209       Al216   1.896       .  S
O210       Al216   1.972       .  S
O211        C218   1.257       .  A
O212       Al216   1.791       .  S
O213        C214   1.257       .  A
C214       C2090   1.489       .  S
C215       C1933   1.481       .  S
C218       C1898   1.477       .  S
C219        O220   1.257   1_554  A
C219       C2429   1.503       .  S
O221        C236   1.260       .  A
O221       Al229   1.860       .  S
C222        O232   1.267       .  A
C222        O223   1.275       .  A
C222       C1866   1.484       .  S
O223       Al225   1.950       .  S
O224        C226   1.248       .  A
O224       Al225   1.870       .  S
Al225       O233   1.908       .  S
Al225       O235   1.935       .  S
Al225       O234   1.798       .  S
C226        O239   1.250       .  A
C226       C1882   1.467       .  S
O227        C237   1.254       .  A
O227       Al229   1.911       .  S
O228        C241   1.266       .  A
O228       Al238   1.898       .  S
Al229       O242   1.941       .  S
Al229       O239   1.893       .  S
Al229       O234   1.803       .  S
O230        C237   1.259       .  A
O230       Al238   1.903       .  S
O231        C240   1.249       .  A
O231       Al238   1.889       .  S
O232       Al238   1.879       .  S
O233        C240   1.249       .  A
O234       Al238   1.778       .  S
O235        C236   1.271       .  A
C236       C2349   1.496       .  S
C237       C1917   1.482       .  S
C240       C2029   1.482       .  S
C241        O242   1.269       .  A
C241       C1949   1.491       .  S
O243        C258   1.275       .  A
O243       Al251   1.967       .  S
C244        O254   1.275       .  A
C244        O245   1.264       .  A
C244       C2013   1.477       .  S
O245       Al247   1.861       .  S
O246        C248   1.261       .  A
O246       Al247   1.925       .  S
Al247       O255   1.914       .  S
Al247       O257   1.870       .  S
Al247       O256   1.776       .  S
C248        O261   1.254       .  A
C248       C1869   1.478       .  S
O249        C259   1.262       .  A
O249       Al251   1.935       .  S
O250        C263   1.270   1_556  A
O250       Al260   1.933       .  S
Al251       O264   1.852       .  S
Al251       O261   1.902       .  S
Al251       O256   1.797       .  S
O252        C259   1.254       .  A
O252       Al260   1.885       .  S
O253        C262   1.255       .  A
O253       Al260   1.923       .  S
O254       Al260   1.957       .  S
O255        C262   1.256       .  A
O256       Al260   1.792       .  S
O257        C258   1.262       .  A
C258       C1901   1.488       .  S
C259       C1850   1.486       .  S
C262       C2106   1.490       .  S
C263        O264   1.250   1_554  A
C263       C2141   1.487       .  S
O265        C280   1.264       .  A
O265       Al273   1.921       .  S
C266        O276   1.266       .  A
C266        O267   1.263       .  A
C266       C1802   1.472       .  S
O267       Al269   1.904       .  S
O268        C270   1.258       .  A
O268       Al269   1.886       .  S
Al269       O277   1.895       .  S
Al269       O279   1.903       .  S
Al269       O278   1.767       .  S
C270        O283   1.260       .  A
C270       C1789   1.475       .  S
O271        C281   1.263       .  A
O271       Al273   1.914       .  S
O272        C285   1.266       .  A
O272       Al282   1.900       .  S
Al273       O286   1.929       .  S
Al273       O283   1.930       .  S
Al273       O278   1.796       .  S
O274        C281   1.263       .  A
O274       Al282   1.920       .  S
O275        C284   1.263       .  A
O275       Al282   1.939       .  S
O276       Al282   1.919       .  S
O277        C284   1.259       .  A
O278       Al282   1.785       .  S
O279        C280   1.263       .  A
C280       C1818   1.475       .  S
C281       C1834   1.482       .  S
C284       C1773   1.496       .  S
C285        O286   1.265       .  A
C285       C1754   1.480       .  S
O287        C302   1.249       .  A
O287       Al295   1.872       .  S
C288        O298   1.263       .  A
C288        O289   1.272       .  A
C288       C1706   1.479       .  S
O289       Al291   1.958       .  S
O290        C292   1.258       .  A
O290       Al291   1.866       .  S
Al291       O299   1.927       .  S
Al291       O301   1.920       .  S
Al291       O300   1.793       .  S
C292        O305   1.267       .  A
C292       C1885   1.466       .  S
O293        C303   1.252       .  A
O293       Al295   1.901       .  S
O294        C307   1.262       .  A
O294       Al304   1.884       .  S
Al295       O308   1.945       .  S
Al295       O305   1.927       .  S
Al295       O300   1.788       .  S
O296        C303   1.254       .  A
O296       Al304   1.900       .  S
O297        C306   1.258       .  A
O297       Al304   1.896       .  S
O298       Al304   1.883       .  S
O299        C306   1.261       .  A
O300       Al304   1.772       .  S
O301        C302   1.263       .  A
C302       C1690   1.500       .  S
C303       C1805   1.474       .  S
C306       C1722   1.474       .  S
C307        O308   1.273       .  A
C307       C1738   1.472       .  S
O309        C324   1.252       .  A
O309       Al317   1.867       .  S
C310        O320   1.258       .  A
C310        O311   1.274       .  A
C310       C1642   1.470       .  S
O311       Al313   1.969       .  S
O312        C314   1.257       .  A
O312       Al313   1.867       .  S
Al313       O321   1.919       .  S
Al313       O323   1.939       .  S
Al313       O322   1.789       .  S
C314        O327   1.270       .  A
C314       C1981   1.479       .  S
O315        C325   1.257       .  A
O315       Al317   1.919       .  S
O316        C329   1.254       .  A
O316       Al326   1.855       .  S
Al317       O330   1.979       .  S
Al317       O327   1.955       .  S
Al317       O322   1.785       .  S
O318        C325   1.258       .  A
O318       Al326   1.924       .  S
O319        C328   1.262       .  A
O319       Al326   1.935       .  S
O320       Al326   1.874       .  S
O321        C328   1.259       .  A
O322       Al326   1.764       .  S
O323        C324   1.268       .  A
C324       C1626   1.490       .  S
C325       C1674   1.486       .  S
C328       C1658   1.485       .  S
C329        O330   1.279       .  A
C329       C1725   1.502       .  S
O331        C346   1.265       .  A
O331       Al339   1.931       .  S
C332        O342   1.264       .  A
C332        O333   1.258       .  A
C332       C1677   1.486       .  S
O333       Al335   1.899       .  S
O334        C336   1.258       .  A
O334       Al335   1.887       .  S
Al335       O343   1.896       .  S
Al335       O345   1.915       .  S
Al335       O344   1.777       .  S
C336        O349   1.262       .  A
C336       C1709   1.482       .  S
O337        C347   1.264       .  A
O337       Al339   1.909       .  S
O338        C351   1.262       .  A
O338       Al348   1.913       .  S
Al339       O352   1.909       .  S
Al339       O349   1.930       .  S
Al339       O344   1.798       .  S
O340        C347   1.267       .  A
O340       Al348   1.929       .  S
O341        C350   1.264       .  A
O341       Al348   1.926       .  S
O342       Al348   1.930       .  S
O343        C350   1.260       .  A
O344       Al348   1.793       .  S
O345        C346   1.262       .  A
C346       C1770   1.486       .  S
C347       C1610   1.482       .  S
C350       C1594   1.475       .  S
C351        O352   1.259       .  A
C351       C1581   1.479       .  S
O353        C368   1.259       .  A
O353       Al361   1.867       .  S
C354        O364   1.254       .  A
C354        O355   1.280       .  A
C354       C1786   1.500       .  S
O355       Al357   1.978       .  S
O356        C358   1.255       .  A
O356       Al357   1.873       .  S
Al357       O365   1.915       .  S
Al357       O367   1.964       .  S
Al357       O366   1.775       .  S
C358        O371   1.265       .  A
C358       C2045   1.496       .  S
O359        C369   1.257       .  A
O359       Al361   1.904       .  S
O360        C373   1.261       .  A
O360       Al370   1.872       .  S
Al361       O374   1.977       .  S
Al361       O371   1.954       .  S
Al361       O366   1.790       .  S
O362        C369   1.262       .  A
O362       Al370   1.926       .  S
O363        C372   1.258       .  A
O363       Al370   1.928       .  S
O364       Al370   1.860       .  S
O365        C372   1.256       .  A
O366       Al370   1.773       .  S
O367        C368   1.275       .  A
C368       C1546   1.500       .  S
C369       C1562   1.475       .  S
C372       C1741   1.489       .  S
C373        O374   1.277       .  A
C373       C1661   1.481       .  S
O375        C390   1.268       .  A
O375       Al383   1.935       .  S
C376        O386   1.264       .  A
C376        O377   1.261       .  A
C376       C1565   1.481       .  S
O377       Al379   1.901       .  S
O378        C380   1.255       .  A
O378       Al379   1.890       .  S
Al379       O387   1.894       .  S
Al379       O389   1.888       .  S
Al379       O388   1.774       .  S
C380        O393   1.259       .  A
C380       C1645   1.498       .  S
O381        C391   1.264       .  A
O381       Al383   1.923       .  S
O382        C395   1.268       .  A
O382       Al392   1.927       .  S
Al383       O396   1.921       .  S
Al383       O393   1.913       .  S
Al383       O388   1.792       .  S
O384        C391   1.261       .  A
O384       Al392   1.909       .  S
O385        C394   1.261       .  A
O385       Al392   1.932       .  S
O386       Al392   1.930       .  S
O387        C394   1.257       .  A
O388       Al392   1.792       .  S
O389        C390   1.259       .  A
C390       C1597   1.481       .  S
C391       C1530   1.496       .  S
C394       C1821   1.480       .  S
C395        O396   1.266       .  A
C395       C1517   1.503       .  S
O397        C412   1.253       .  A
O397       Al405   1.878   1_556  S
C398        O408   1.261       .  A
C398        O399   1.268       .  A
C398       C1469   1.466       .  S
O399       Al401   1.939       .  S
O400        C402   1.255       .  A
O400       Al401   1.870       .  S
Al401       O409   1.911       .  S
Al401       O411   1.916   1_554  S
Al401       O410   1.796       .  S
C402        O415   1.266       .  A
C402       C1434   1.479       .  S
O403        C413   1.252       .  A
O403       Al405   1.900       .  S
O404        C417   1.263       .  A
O404       Al414   1.892       .  S
Al405       O418   1.952       .  S
Al405       O415   1.936       .  S
Al405       O410   1.796       .  S
O406        C413   1.256       .  A
O406       Al414   1.906       .  S
O407        C416   1.256       .  A
O407       Al414   1.905       .  S
O408       Al414   1.880       .  S
O409        C416   1.257       .  A
O410       Al414   1.781       .  S
O411        C412   1.263       .  A
C412       C1629   1.496       .  S
C413       C1485   1.478       .  S
C416       C1450   1.472       .  S
C417        O418   1.273       .  A
C417       C1501   1.483       .  S
O419        C434   1.256       .  A
O419       Al427   1.897       .  S
C420        O430   1.273       .  A
C420        O421   1.265       .  A
C420       C1482   1.479       .  S
O421       Al423   1.892       .  S
O422        C424   1.253       .  A
O422       Al423   1.873       .  S
Al423       O431   1.909       .  S
Al423       O433   1.870       .  S
Al423       O432   1.767       .  S
C424        O437   1.266       .  A
C424       C1405   1.501       .  S
O425        C435   1.254       .  A
O425       Al427   1.906       .  S
O426        C439   1.270       .  A
O426       Al436   1.911       .  S
Al427       O440   1.945       .  S
Al427       O437   1.931       .  S
Al427       O432   1.790       .  S
O428        C435   1.259       .  A
O428       Al436   1.924       .  S
O429        C438   1.260       .  A
O429       Al436   1.942       .  S
O430       Al436   1.937       .  S
O431        C438   1.258       .  A
O432       Al436   1.787       .  S
O433        C434   1.255       .  A
C434       C1421   1.466       .  S
C435       C2506   1.484       .  S
C438       C1386   1.498       .  S
C439        O440   1.276       .  A
C439       C1514   1.511       .  S
O441        C456   1.262       .  A
O441       Al449   1.923       .  S
C442        O452   1.264       .  A
C442        O443   1.262       .  A
C442       C1370   1.487       .  S
O443       Al445   1.919       .  S
O444        C446   1.256       .  A
O444       Al445   1.861       .  S
Al445       O453   1.886       .  S
Al445       O455   1.919       .  S
Al445       O454   1.766       .  S
C446        O459   1.265       .  A
C446       C1466   1.476       .  S
O447        C457   1.260       .  A
O447       Al449   1.899       .  S
O448        C461   1.267       .  A
O448       Al458   1.915       .  S
Al449       O462   1.919       .  S
Al449       O459   1.939       .  S
Al449       O454   1.795       .  S
O450        C457   1.271       .  A
O450       Al458   1.948       .  S
O451        C460   1.273       .  A
O451       Al458   1.971       .  S
O452       Al458   1.927       .  S
O453        C460   1.255       .  A
O454       Al458   1.781       .  S
O455        C456   1.262       .  A
C456       C1389   1.484       .  S
C457       C2157   1.490       .  S
C460       C1354   1.512       .  S
C461        O462   1.262       .  A
C461       C1578   1.500       .  S
O463        C478   1.252       .  A
O463       Al471   1.866   1_556  S
C464        O474   1.259       .  A
C464        O465   1.269       .  A
C464       C1306   1.457       .  S
O465       Al467   1.942       .  S
O466        C468   1.253       .  A
O466       Al467   1.865       .  S
Al467       O475   1.916       .  S
Al467       O477   1.933   1_554  S
Al467       O476   1.790       .  S
C468        O481   1.265       .  A
C468       C1338   1.475       .  S
O469        C479   1.256       .  A
O469       Al471   1.909       .  S
O470        C483   1.262       .  A
O470       Al480   1.875       .  S
Al471       O484   1.955       .  S
Al471       O481   1.941       .  S
Al471       O476   1.788       .  S
O472        C479   1.258       .  A
O472       Al480   1.908       .  S
O473        C482   1.259       .  A
O473       Al480   1.919       .  S
O474       Al480   1.867       .  S
O475        C482   1.259       .  A
O476       Al480   1.771       .  S
O477        C478   1.268       .  A
C478       C1693   1.495       .  S
C479       C1373   1.477       .  S
C482       C1322   1.481       .  S
C483        O484   1.275       .  A
C483       C1453   1.491       .  S
O485        C500   1.255       .  A
O485       Al493   1.877   1_556  S
C486        O496   1.260       .  A
C486        O487   1.272       .  A
C486       C1402   1.473       .  S
O487       Al489   1.961       .  S
O488        C490   1.255       .  A
O488       Al489   1.874       .  S
Al489       O497   1.914       .  S
Al489       O499   1.956   1_554  S
Al489       O498   1.784       .  S
C490        O503   1.272       .  A
C490       C1290   1.495       .  S
O491        C501   1.253       .  A
O491       Al493   1.897       .  S
O492        C505   1.259       .  A
O492       Al502   1.854       .  S
Al493       O506   1.977       .  S
Al493       O503   1.965       .  S
Al493       O498   1.791       .  S
O494        C501   1.260       .  A
O494       Al502   1.919       .  S
O495        C504   1.264       .  A
O495       Al502   1.930       .  S
O496       Al502   1.878       .  S
O497        C504   1.259       .  A
O498       Al502   1.772       .  S
O499        C500   1.270       .  A
C500       C1549   1.500       .  S
C501       C1277   1.470       .  S
C504       C1498   1.486       .  S
C505        O506   1.277       .  A
C505       C1325   1.484       .  S
O507        C522   1.270       .  A
O507       Al515   1.961       .  S
C508        O518   1.261       .  A
C508        O509   1.257       .  A
C508       C1274   1.477       .  S
O509       Al511   1.896       .  S
O510        C512   1.258       .  A
O510       Al511   1.882       .  S
Al511       O519   1.883       .  S
Al511       O521   1.901       .  S
Al511       O520   1.769       .  S
C512        O525   1.268       .  A
C512       C1309   1.490       .  S
O513        C523   1.270       .  A
O513       Al515   1.933       .  S
O514        C527   1.260       .  A
O514       Al524   1.904       .  S
Al515       O528   1.910       .  S
Al515       O525   1.931       .  S
Al515       O520   1.780       .  S
O516        C523   1.266       .  A
O516       Al524   1.922       .  S
O517        C526   1.269       .  A
O517       Al524   1.939       .  S
O518       Al524   1.931       .  S
O519        C526   1.260       .  A
O520       Al524   1.778       .  S
O521        C522   1.260       .  A
C522       C1357   1.505       .  S
C523       C2253   1.498       .  S
C526       C1418   1.478       .  S
C527        O528   1.261       .  A
C527       C1757   1.472       .  S
O529        C544   1.253       .  A
O529       Al537   1.878       .  S
C530        O540   1.269       .  A
C530        O531   1.271       .  A
C530       C1210   1.484       .  S
O531       Al533   1.945       .  S
O532        C534   1.258       .  A
O532       Al533   1.878       .  S
Al533       O541   1.940       .  S
Al533       O543   1.921       .  S
Al533       O542   1.804       .  S
C534        O547   1.272       .  A
C534       C2410   1.501       .  S
O535        C545   1.256       .  A
O535       Al537   1.928   1_455  S
O536        C549   1.262   1_655  A
O536       Al546   1.878       .  S
Al537       O550   1.974   1_655  S
Al537       O547   1.951       .  S
Al537       O542   1.796       .  S
O538        C545   1.249       .  A
O538       Al546   1.887   1_455  S
O539        C548   1.252       .  A
O539       Al546   1.846       .  S
O540       Al546   1.910       .  S
O541        C548   1.258       .  A
O542       Al546   1.778       .  S
O543        C544   1.258       .  A
C544       C1194   1.487       .  S
C545       C1226   1.484       .  S
C548       C1242   1.490       .  S
C549        O550   1.277       .  A
C549       C1258   1.493       .  S
O551        C566   1.260       .  A
O551       Al559   1.922       .  S
C552        O562   1.271       .  A
C552        O553   1.265       .  A
C552       C1229   1.484       .  S
O553       Al555   1.921       .  S
O554        C556   1.256       .  A
O554       Al555   1.842       .  S
Al555       O563   1.882       .  S
Al555       O565   1.884       .  S
Al555       O564   1.759       .  S
C556        O569   1.263       .  A
C556       C1146   1.493       .  S
O557        C567   1.257       .  A
O557       Al559   1.896       .  S
O558        C571   1.268       .  A
O558       Al568   1.899       .  S
Al559       O572   1.920       .  S
Al559       O569   1.936       .  S
Al559       O564   1.790       .  S
O560        C567   1.258       .  A
O560       Al568   1.914       .  S
O561        C570   1.260       .  A
O561       Al568   1.945       .  S
O562       Al568   1.938       .  S
O563        C570   1.251       .  A
O564       Al568   1.791       .  S
O565        C566   1.256       .  A
C566       C1181   1.479       .  S
C567       C1837   1.473       .  S
C570       C1165   1.469   1_455  S
C571        O572   1.271       .  A
C571       C1133   1.487       .  S
O573        C588   1.256   1_565  A
O573       Al581   1.848       .  S
C574        O584   1.250       .  A
C574        O575   1.267       .  A
C574       C1149   1.474       .  S
O575       Al577   1.951       .  S
O576        C578   1.253       .  A
O576       Al577   1.877       .  S
Al577       O585   1.916       .  S
Al577       O587   1.967       .  S
Al577       O586   1.798       .  S
C578        O591   1.264       .  A
C578       C2189   1.484       .  S
O579        C589   1.253       .  A
O579       Al581   1.882       .  S
O580        C593   1.253       .  A
O580       Al590   1.861   1_565  S
Al581       O594   1.966       .  S
Al581       O591   1.942   1_565  S
Al581       O586   1.801   1_565  S
O582        C589   1.267       .  A
O582       Al590   1.937   1_565  S
O583        C592   1.264       .  A
O583       Al590   1.921       .  S
O584       Al590   1.846       .  S
O585        C592   1.260       .  A
O586       Al590   1.772       .  S
O587        C588   1.273       .  A
C588       C1085   1.507       .  S
C589       C1101   1.479       .  S
C592       C1261   1.491       .  S
C593        O594   1.270       .  A
C593       C1117   1.497       .  S
O595        C610   1.265       .  A
O595       Al603   1.934       .  S
C596        O606   1.263       .  A
C596        O597   1.254       .  A
C596       C1053   1.478       .  S
O597       Al599   1.885       .  S
O598        C600   1.263   1_565  A
O598       Al599   1.882       .  S
Al599       O607   1.884       .  S
Al599       O609   1.874   1_565  S
Al599       O608   1.766       .  S
C600        O613   1.263       .  A
C600       C1213   1.491       .  S
O601        C611   1.258       .  A
O601       Al603   1.893   1_565  S
O602        C615   1.260       .  A
O602       Al612   1.904       .  S
Al603       O616   1.916   1_545  S
Al603       O613   1.932       .  S
Al603       O608   1.797   1_545  S
O604        C611   1.265       .  A
O604       Al612   1.931       .  S
O605        C614   1.268       .  A
O605       Al612   1.942       .  S
O606       Al612   1.937       .  S
O607        C614   1.261       .  A
O608       Al612   1.790       .  S
O609        C610   1.253       .  A
C610       C1162   1.485       .  S
C611       C1533   1.479       .  S
C614       C1066   1.491       .  S
C615        O616   1.263       .  A
C615       C1034   1.479       .  S
O617        C632   1.253       .  A
O617       Al625   1.875       .  S
C618        O628   1.254       .  A
C618        O619   1.275       .  A
C618       C1018   1.470       .  S
O619       Al621   1.980       .  S
O620        C622   1.259       .  A
O620       Al621   1.869       .  S
Al621       O629   1.916       .  S
Al621       O631   1.951       .  S
Al621       O630   1.785       .  S
C622        O635   1.273       .  A
C622       C2269   1.478       .  S
O623        C633   1.251       .  A
O623       Al625   1.898       .  S
O624        C637   1.251       .  A
O624       Al634   1.840       .  S
Al625       O638   1.983       .  S
Al625       O635   1.953       .  S
Al625       O630   1.787       .  S
O626        C633   1.258       .  A
O626       Al634   1.918       .  S
O627        C636   1.263       .  A
O627       Al634   1.931       .  S
O628       Al634   1.864       .  S
O629        C636   1.261       .  A
O630       Al634   1.757       .  S
O631        C632   1.269       .  A
C632       C1002   1.495       .  S
C633       C1050   1.478       .  S
C636       C1114   1.478       .  S
C637        O638   1.278       .  A
C637       C1245   1.488       .  S
O639        C654   1.262       .  A
O639       Al647   1.922       .  S
C640        O650   1.267       .  A
C640        O641   1.258       .  A
C640       C1098   1.475       .  S
O641       Al643   1.873   1_455  S
O642        C644   1.258       .  A
O642       Al643   1.892       .  S
Al643       O651   1.907   1_655  S
Al643       O653   1.882       .  S
Al643       O652   1.772       .  S
C644        O657   1.264       .  A
C644       C1021   1.492       .  S
O645        C655   1.262   1_655  A
O645       Al647   1.917       .  S
O646        C659   1.263   1_455  A
O646       Al656   1.911       .  S
Al647       O660   1.921       .  S
Al647       O657   1.922       .  S
Al647       O652   1.792       .  S
O648        C655   1.265       .  A
O648       Al656   1.915       .  S
O649        C658   1.260       .  A
O649       Al656   1.922       .  S
O650       Al656   1.936       .  S
O651        C658   1.263       .  A
O652       Al656   1.785   1_655  S
O653        C654   1.257       .  A
C654       C1069   1.473       .  S
C655       C1613   1.498       .  S
C658       C1178   1.493       .  S
C659        O660   1.265       .  A
C659        C986   1.503       .  S
O661        C676   1.280   1_455  A
O661       Al669   1.982   1_455  S
C662        O672   1.270       .  A
C662        O663   1.256       .  A
C662        C922   1.470       .  S
O663       Al665   1.875       .  S
O664        C666   1.258       .  A
O664       Al665   1.916       .  S
Al665       O673   1.936       .  S
Al665       O675   1.854       .  S
Al665       O674   1.769       .  S
C666        O679   1.250       .  A
C666        C957   1.478   1_655  S
O667        C677   1.279       .  A
O667       Al669   1.974       .  S
O668        C681   1.263       .  A
O668       Al678   1.945       .  S
Al669       O682   1.876       .  S
Al669       O679   1.888       .  S
Al669       O674   1.784       .  S
O670        C677   1.259       .  A
O670       Al678   1.865       .  S
O671        C680   1.263       .  A
O671       Al678   1.911       .  S
O672       Al678   1.966       .  S
O673        C680   1.265       .  A
O674       Al678   1.791       .  S
O675        C676   1.253       .  A
C676        C970   1.502   1_655  S
C677       C1853   1.485       .  S
C680        C938   1.474       .  S
C681        O682   1.252       .  A
C681        C989   1.510       .  S
O683        C698   1.271   1_545  A
O683       Al691   1.924       .  S
C684        O694   1.266       .  A
C684        O685   1.273       .  A
C684        C954   1.479       .  S
O685       Al687   1.934       .  S
O686        C688   1.254       .  A
O686       Al687   1.905       .  S
Al687       O695   1.923       .  S
Al687       O697   1.911       .  S
Al687       O696   1.789       .  S
C688        O701   1.256       .  A
C688       C1437   1.482       .  S
O689        C699   1.258       .  A
O689       Al691   1.902       .  S
O690        C703   1.257       .  A
O690       Al700   1.882   1_545  S
Al691       O704   1.919       .  S
Al691       O701   1.917   1_545  S
Al691       O696   1.796   1_545  S
O692        C699   1.261   1_565  A
O692       Al700   1.887       .  S
O693        C702   1.258       .  A
O693       Al700   1.917       .  S
O694       Al700   1.911       .  S
O695        C702   1.257       .  A
O696       Al700   1.777       .  S
O697        C698   1.271       .  A
C698       C1082   1.499       .  S
C699        C893   1.490       .  S
C702        C874   1.486   1_455  S
C703        O704   1.260       .  A
C703        C906   1.482       .  S
O705        C720   1.265       .  A
O705       Al713   1.938       .  S
C706        O716   1.263       .  A
C706        O707   1.259       .  A
C706        C890   1.476       .  S
O707       Al709   1.903       .  S
O708        C710   1.261       .  A
O708       Al709   1.874       .  S
Al709       O717   1.902       .  S
Al709       O719   1.902       .  S
Al709       O718   1.767       .  S
C710        O723   1.265       .  A
C710        C845   1.473       .  S
O711        C721   1.270       .  A
O711       Al713   1.936       .  S
O712        C725   1.260       .  A
O712       Al722   1.898       .  S
Al713       O726   1.909       .  S
Al713       O723   1.938       .  S
Al713       O718   1.785       .  S
O714        C721   1.265       .  A
O714       Al722   1.922       .  S
O715        C724   1.265       .  A
O715       Al722   1.933       .  S
O716       Al722   1.918       .  S
O717        C724   1.264       .  A
O718       Al722   1.773       .  S
O719        C720   1.258       .  A
C720        C858   1.477       .  S
C721       C2125   1.514       .  S
C724        C973   1.494       .  S
C725        O726   1.262       .  A
C725       C1130   1.477       .  S
O727        C742   1.262       .  A
O727       Al735   1.929       .  S
C728        O738   1.278       .  A
C728        O729   1.266       .  A
C728        C826   1.484       .  S
O729       Al731   1.881       .  S
O730        C732   1.255   1_545  A
O730       Al731   1.887       .  S
Al731       O739   1.923       .  S
Al731       O741   1.872   1_545  S
Al731       O740   1.784       .  S
C732        O745   1.260       .  A
C732        C810   1.493       .  S
O733        C743   1.256       .  A
O733       Al735   1.928   1_545  S
O734        C747   1.277       .  A
O734       Al744   1.925       .  S
Al735       O748   1.930       .  S
Al735       O745   1.897       .  S
Al735       O740   1.796   1_565  S
O736        C743   1.253       .  A
O736       Al744   1.915       .  S
O737        C746   1.255       .  A
O737       Al744   1.918       .  S
O738       Al744   1.949       .  S
O739        C746   1.258       .  A
O740       Al744   1.791       .  S
O741        C742   1.255       .  A
C742        C941   1.487       .  S
C743       C1930   1.498       .  S
C746        C861   1.498       .  S
C747        O748   1.271   1_545  A
C747       C1037   1.489       .  S
O749        C764   1.272       .  A
O749       Al757   1.945       .  S
C750        O760   1.264       .  A
C750        O751   1.262       .  A
C750        C842   1.473       .  S
O751       Al753   1.911       .  S
O752        C754   1.260       .  A
O752       Al753   1.913       .  S
Al753       O761   1.949       .  S
Al753       O763   1.879       .  S
Al753       O762   1.794       .  S
C754        O767   1.261   1_455  A
C754       C1341   1.487       .  S
O755        C765   1.269       .  A
O755       Al757   1.949       .  S
O756        C769   1.258       .  A
O756       Al766   1.902   1_655  S
Al757       O770   1.916       .  S
Al757       O767   1.912       .  S
Al757       O762   1.790   1_655  S
O758        C765   1.256       .  A
O758       Al766   1.882   1_655  S
O759        C768   1.257       .  A
O759       Al766   1.876       .  S
O760       Al766   1.908       .  S
O761        C768   1.264       .  A
O762       Al766   1.770       .  S
O763        C764   1.259   1_455  A
C764       C1197   1.500       .  S
C765        C829   1.506       .  S
C768        C909   1.487       .  S
C769        O770   1.260       .  A
C769        C794   1.481       .  S
O771        C786   1.252       .  A
O771       Al779   1.855       .  S
C772        O782   1.260       .  A
C772        O773   1.271       .  A
C772        C813   1.475       .  S
O773       Al775   1.956       .  S
O774        C776   1.261       .  A
O774       Al775   1.890       .  S
Al775       O783   1.919       .  S
Al775       O785   1.960       .  S
Al775       O784   1.792       .  S
C776        O789   1.266       .  A
C776       C1293   1.504       .  S
O777        C787   1.252       .  A
O777       Al779   1.887       .  S
O778        C791   1.257       .  A
O778       Al788   1.873       .  S
Al779       O792   1.955       .  S
Al779       O789   1.945       .  S
Al779       O784   1.798       .  S
O780        C787   1.261       .  A
O780       Al788   1.923       .  S
O781        C790   1.257       .  A
O781       Al788   1.904       .  S
O782       Al788   1.875       .  S
O783        C790   1.262       .  A
O784       Al788   1.777       .  S
O785        C786   1.270       .  A
C786       C1005   1.497       .  S
C787        C925   1.473       .  S
C790        C797   1.478       .  S
C791        O792   1.271       .  A
C791        C877   1.479       .  S
C793        C794   1.404       .  A
C793        C798   1.409   1_545  A
C793        H800   1.084       .  S
C794        C795   1.414       .  A
C795        C796   1.412   1_545  A
C795        C802   1.516       .  S
C796        C797   1.405       .  A
C796        H801   1.083       .  S
C797        C798   1.410       .  A
C798        C799   1.512       .  S
C799        F803   1.382       .  S
C799        F804   1.383       .  S
C799        F805   1.384       .  S
C802        F806   1.383       .  S
C802        F807   1.383       .  S
C802        F808   1.384       .  S
C809        C810   1.410       .  A
C809        C814   1.406   1_556  A
C809        H816   1.082       .  S
C810        C811   1.426       .  A
C811        C812   1.404   1_556  A
C811        C818   1.521   1_565  S
C812        C813   1.400       .  A
C812        H817   1.084       .  S
C813        C814   1.407       .  A
C814        C815   1.506       .  S
C815        F819   1.383       .  S
C815        F820   1.376       .  S
C815        F821   1.385   1_554  S
C818        F822   1.381       .  S
C818        F823   1.383       .  S
C818        F824   1.385   1_556  S
C825        C826   1.400       .  A
C825        C830   1.403       .  A
C825        H832   1.083       .  S
C826        C827   1.412       .  A
C827        C828   1.418   1_556  A
C827        C834   1.516       .  S
C828        C829   1.415       .  A
C828        H833   1.082       .  S
C829        C830   1.430   1_554  A
C830        C831   1.523       .  S
C831        F835   1.383       .  S
C831        F836   1.374   1_655  S
C831        F837   1.383   1_655  S
C834        F838   1.384       .  S
C834        F839   1.383       .  S
C834        F840   1.384   1_556  S
C841        C842   1.399       .  A
C841        C846   1.392   1_554  A
C841        H848   1.078       .  S
C842        C843   1.415       .  A
C843        C844   1.415   1_554  A
C843        C850   1.518       .  S
C844        C845   1.407       .  A
C844        H849   1.083       .  S
C845        C846   1.410       .  A
C846        C847   1.516       .  S
C847        F851   1.384   1_556  S
C847        F852   1.384       .  S
C847        F853   1.382   1_556  S
C850        F854   1.383       .  S
C850        F855   1.381       .  S
C850        F856   1.384   1_554  S
C857        C858   1.402       .  A
C857        C862   1.409   1_455  A
C857        H864   1.085       .  S
C858        C859   1.410       .  A
C859        C860   1.412   1_455  A
C859        C866   1.516       .  S
C860        C861   1.412       .  A
C860        H865   1.083       .  S
C861        C862   1.419       .  A
C862        C863   1.510       .  S
C863        F867   1.383       .  S
C863        F868   1.380       .  S
C863        F869   1.381       .  S
C866        F870   1.383       .  S
C866        F871   1.381       .  S
C866        F872   1.385   1_455  S
C873        C874   1.405       .  A
C873        C878   1.410       .  A
C873        H880   1.081       .  S
C874        C875   1.412       .  A
C875        C876   1.407       .  A
C875        C882   1.511       .  S
C876        C877   1.405       .  A
C876        H881   1.084       .  S
C877        C878   1.411       .  A
C878        C879   1.512       .  S
C879        F883   1.381       .  S
C879        F884   1.382       .  S
C879        F885   1.383       .  S
C882        F886   1.378       .  S
C882        F887   1.383   1_655  S
C882        F888   1.383       .  S
C889        C890   1.399       .  A
C889        C894   1.412   1_556  A
C889        H896   1.083       .  S
C890        C891   1.415       .  A
C891        C892   1.399       .  A
C891        C898   1.514       .  S
C892        C893   1.404   1_556  A
C892        H897   1.083   1_545  S
C893        C894   1.426       .  A
C894        C895   1.518       .  S
C895        F899   1.385       .  S
C895        F900   1.383       .  S
C895        F901   1.384       .  S
C898        F902   1.382       .  S
C898        F903   1.379       .  S
C898        F904   1.385   1_545  S
C905        C906   1.405       .  A
C905        C910   1.417       .  A
C905        H912   1.083       .  S
C906        C907   1.411       .  A
C907        C908   1.396       .  A
C907        C914   1.507       .  S
C908        C909   1.400       .  A
C908        H913   1.085       .  S
C909        C910   1.421       .  A
C910        C911   1.514       .  S
C911        F915   1.385       .  S
C911        F916   1.383       .  S
C911        F917   1.375       .  S
C914        F918   1.382       .  S
C914        F919   1.383       .  S
C914        F920   1.384       .  S
C921        C922   1.399       .  A
C921        C926   1.401       .  A
C921        H928   1.081       .  S
C922        C923   1.414       .  A
C923        C924   1.408   1_556  A
C923        C930   1.511       .  S
C924        C925   1.402       .  A
C924        H929   1.084       .  S
C925        C926   1.413   1_554  A
C926        C927   1.513       .  S
C927        F931   1.383       .  S
C927        F932   1.383       .  S
C927        F933   1.381   1_556  S
C930        F934   1.384       .  S
C930        F935   1.383       .  S
C930        F936   1.379   1_556  S
C937        C938   1.396       .  A
C937        C942   1.401       .  A
C937        H944   1.085       .  S
C938        C939   1.419       .  A
C939        C940   1.411       .  A
C939        C946   1.513       .  S
C940        C941   1.403       .  A
C940        H945   1.084       .  S
C941        C942   1.418       .  A
C942        C943   1.508       .  S
C943        F947   1.384       .  S
C943        F948   1.382       .  S
C943        F949   1.381       .  S
C946        F950   1.383       .  S
C946        F951   1.383       .  S
C946        F952   1.381       .  S
C953        C954   1.402       .  A
C953        C958   1.403   1_454  A
C953        H960   1.081   1_455  S
C954        C955   1.415   1_554  A
C955        C956   1.414       .  A
C955        C962   1.513       .  S
C956        C957   1.405       .  A
C956        H961   1.083       .  S
C957        C958   1.410   1_455  A
C958        C959   1.512   1_556  S
C959        F963   1.382       .  S
C959        F964   1.382   1_554  S
C959        F965   1.381       .  S
C962        F966   1.383   1_556  S
C962        F967   1.381   1_556  S
C962        F968   1.384       .  S
C969        C970   1.408       .  A
C969        C974   1.414   1_565  A
C969        H976   1.084       .  S
C970        C971   1.435   1_455  A
C971        C972   1.403   1_665  A
C971        C978   1.528       .  S
C972        C973   1.399       .  A
C972        H977   1.082       .  S
C973        C974   1.419       .  A
C974        C975   1.515       .  S
C975        F979   1.384   1_545  S
C975        F980   1.382       .  S
C975        F981   1.383       .  S
C978        F982   1.384       .  S
C978        F983   1.382       .  S
C978        F984   1.386       .  S
C985        C986   1.411       .  A
C985        C990   1.414       .  A
C985        H992   1.082       .  S
C986        C987   1.420   1_655  A
C987        C988   1.411   1_455  A
C987        C994   1.522       .  S
C988        C989   1.414       .  A
C988        H993   1.081   1_655  S
C989        C990   1.423       .  A
C990        C991   1.519       .  S
C991        F995   1.385       .  S
C991        F996   1.383       .  S
C991        F997   1.382       .  S
C994        F998   1.383       .  S
C994        F999   1.384       .  S
C994       F1000   1.385       .  S
C1001      C1002   1.412       .  A
C1001      C1006   1.416       .  A
C1001      H1008   1.083       .  S
C1002      C1003   1.417       .  A
C1003      C1004   1.408       .  A
C1003      C1010   1.519       .  S
C1004      C1005   1.410       .  A
C1004      H1009   1.083       .  S
C1005      C1006   1.416       .  A
C1006      C1007   1.517       .  S
C1007      F1011   1.384       .  S
C1007      F1012   1.383       .  S
C1007      F1013   1.383       .  S
C1010      F1014   1.382       .  S
C1010      F1015   1.382       .  S
C1010      F1016   1.385       .  S
C1017      C1018   1.399       .  A
C1017      C1022   1.402       .  A
C1017      H1024   1.079       .  S
C1018      C1019   1.411       .  A
C1019      C1020   1.409       .  A
C1019      C1026   1.516       .  S
C1020      C1021   1.411       .  A
C1020      H1025   1.083       .  S
C1021      C1022   1.423       .  A
C1022      C1023   1.519       .  S
C1023      F1027   1.386       .  S
C1023      F1028   1.378   1_655  S
C1023      F1029   1.383       .  S
C1026      F1030   1.384       .  S
C1026      F1031   1.383       .  S
C1026      F1032   1.382       .  S
C1033      C1034   1.395       .  A
C1033      C1038   1.408       .  A
C1033      H1040   1.083       .  S
C1034      C1035   1.415       .  A
C1035      C1036   1.407   1_565  A
C1035      C1042   1.509       .  S
C1036      C1037   1.401       .  A
C1036      H1041   1.083       .  S
C1037      C1038   1.422   1_545  A
C1038      C1039   1.506       .  S
C1039      F1043   1.385       .  S
C1039      F1044   1.377   1_565  S
C1039      F1045   1.382       .  S
C1042      F1046   1.378   1_565  S
C1042      F1047   1.383       .  S
C1042      F1048   1.385       .  S
C1049      C1050   1.398       .  A
C1049      C1054   1.404       .  A
C1049      H1056   1.084       .  S
C1050      C1051   1.416       .  A
C1051      C1052   1.413       .  A
C1051      C1058   1.515       .  S
C1052      C1053   1.404       .  A
C1052      H1057   1.084       .  S
C1053      C1054   1.415       .  A
C1054      C1055   1.509       .  S
C1055      F1059   1.385       .  S
C1055      F1060   1.384       .  S
C1055      F1061   1.379       .  S
C1058      F1062   1.383       .  S
C1058      F1063   1.382       .  S
C1058      F1064   1.384       .  S
C1065      C1066   1.411       .  A
C1065      C1070   1.414       .  A
C1065      H1072   1.082       .  S
C1066      C1067   1.419       .  A
C1067      C1068   1.397       .  A
C1067      C1074   1.514       .  S
C1068      C1069   1.399       .  A
C1068      H1073   1.084       .  S
C1069      C1070   1.411       .  A
C1070      C1071   1.514       .  S
C1071      F1075   1.384       .  S
C1071      F1076   1.383       .  S
C1071      F1077   1.384       .  S
C1074      F1078   1.375       .  S
C1074      F1079   1.383       .  S
C1074      F1080   1.382       .  S
C1081      C1082   1.414   1_545  A
C1081      C1086   1.415       .  A
C1081      H1088   1.082       .  S
C1082      C1083   1.417       .  A
C1083      C1084   1.405       .  A
C1083      C1090   1.522       .  S
C1084      C1085   1.415   1_565  A
C1084      H1089   1.081       .  S
C1085      C1086   1.420       .  A
C1086      C1087   1.519       .  S
C1087      F1091   1.385       .  S
C1087      F1092   1.384       .  S
C1087      F1093   1.383       .  S
C1090      F1094   1.385       .  S
C1090      F1095   1.383       .  S
C1090      F1096   1.383       .  S
C1097      C1098   1.402       .  A
C1097      C1102   1.394       .  A
C1097      H1104   1.083       .  S
C1098      C1099   1.412       .  A
C1099      C1100   1.416       .  A
C1099      C1106   1.514       .  S
C1100      C1101   1.409       .  A
C1100      H1105   1.083       .  S
C1101      C1102   1.412       .  A
C1102      C1103   1.513   1_565  S
C1103      F1107   1.385       .  S
C1103      F1108   1.381       .  S
C1103      F1109   1.383       .  S
C1106      F1110   1.378       .  S
C1106      F1111   1.383       .  S
C1106      F1112   1.384       .  S
C1113      C1114   1.396       .  A
C1113      C1118   1.402       .  A
C1113      H1120   1.085       .  S
C1114      C1115   1.414       .  A
C1115      C1116   1.417   1_655  A
C1115      C1122   1.515       .  S
C1116      C1117   1.408       .  A
C1116      H1121   1.083       .  S
C1117      C1118   1.425   1_455  A
C1118      C1119   1.516   1_655  S
C1119      F1123   1.385   1_455  S
C1119      F1124   1.385       .  S
C1119      F1125   1.383       .  S
C1122      F1126   1.383       .  S
C1122      F1127   1.378       .  S
C1122      F1128   1.384       .  S
C1129      C1130   1.404       .  A
C1129      C1134   1.405       .  A
C1129      H1136   1.083       .  S
C1130      C1131   1.413       .  A
C1131      C1132   1.406       .  A
C1131      C1138   1.519       .  S
C1132      C1133   1.410       .  A
C1132      H1137   1.083       .  S
C1133      C1134   1.420       .  A
C1134      C1135   1.520       .  S
C1135      F1139   1.385       .  S
C1135      F1140   1.382       .  S
C1135      F1141   1.383       .  S
C1138      F1142   1.381       .  S
C1138      F1143   1.383       .  S
C1138      F1144   1.385       .  S
C1145      C1146   1.402       .  A
C1145      C1150   1.388       .  A
C1145      H1152   1.082       .  S
C1146      C1147   1.422       .  A
C1147      C1148   1.418       .  A
C1147      C1154   1.515       .  S
C1148      C1149   1.406       .  A
C1148      H1153   1.083       .  S
C1149      C1150   1.419       .  A
C1150      C1151   1.522       .  S
C1151      F1155   1.384       .  S
C1151      F1156   1.379       .  S
C1151      F1157   1.369       .  S
C1154      F1158   1.383       .  S
C1154      F1159   1.384       .  S
C1154      F1160   1.385       .  S
C1161      C1162   1.410       .  A
C1161      C1166   1.416       .  A
C1161      H1168   1.081       .  S
C1162      C1163   1.426       .  A
C1163      C1164   1.392       .  A
C1163      C1170   1.523       .  S
C1164      C1165   1.393       .  A
C1164      H1169   1.080       .  S
C1165      C1166   1.411       .  A
C1166      C1167   1.513       .  S
C1167      F1171   1.384       .  S
C1167      F1172   1.383       .  S
C1167      F1173   1.382   1_655  S
C1170      F1174   1.372       .  S
C1170      F1175   1.382       .  S
C1170      F1176   1.385       .  S
C1177      C1178   1.403       .  A
C1177      C1182   1.401   1_565  A
C1177      H1184   1.083       .  S
C1178      C1179   1.429   1_565  A
C1179      C1180   1.415       .  A
C1179      C1186   1.518   1_545  S
C1180      C1181   1.399       .  A
C1180      H1185   1.083       .  S
C1181      C1182   1.413       .  A
C1182      C1183   1.513       .  S
C1183      F1187   1.383       .  S
C1183      F1188   1.382       .  S
C1183      F1189   1.383       .  S
C1186      F1190   1.378       .  S
C1186      F1191   1.383       .  S
C1186      F1192   1.385   1_565  S
C1193      C1194   1.400       .  A
C1193      C1198   1.405   1_655  A
C1193      H1200   1.083   1_655  S
C1194      C1195   1.415       .  A
C1195      C1196   1.413       .  A
C1195      C1202   1.514       .  S
C1196      C1197   1.410       .  A
C1196      H1201   1.082       .  S
C1197      C1198   1.429   1_655  A
C1198      C1199   1.523       .  S
C1199      F1203   1.385       .  S
C1199      F1204   1.383       .  S
C1199      F1205   1.383       .  S
C1202      F1206   1.383       .  S
C1202      F1207   1.382       .  S
C1202      F1208   1.385       .  S
C1209      C1210   1.405       .  A
C1209      C1214   1.416       .  A
C1209      H1216   1.083       .  S
C1210      C1211   1.419       .  A
C1211      C1212   1.396       .  A
C1211      C1218   1.510       .  S
C1212      C1213   1.399       .  A
C1212      H1217   1.083   1_545  S
C1213      C1214   1.422       .  A
C1214      C1215   1.518       .  S
C1215      F1219   1.385       .  S
C1215      F1220   1.381       .  S
C1215      F1221   1.384       .  S
C1218      F1222   1.378       .  S
C1218      F1223   1.378       .  S
C1218      F1224   1.384   1_545  S
C1225      C1226   1.401       .  A
C1225      C1230   1.411       .  A
C1225      H1232   1.085   1_455  S
C1226      C1227   1.416       .  A
C1227      C1228   1.412       .  A
C1227      C1234   1.517       .  S
C1228      C1229   1.406       .  A
C1228      H1233   1.084       .  S
C1229      C1230   1.421       .  A
C1230      C1231   1.516       .  S
C1231      F1235   1.383       .  S
C1231      F1236   1.381       .  S
C1231      F1237   1.382   1_455  S
C1234      F1238   1.383       .  S
C1234      F1239   1.380       .  S
C1234      F1240   1.385       .  S
C1241      C1242   1.400       .  A
C1241      C1246   1.386   1_545  A
C1241      H1248   1.084       .  S
C1242      C1243   1.417   1_545  A
C1243      C1244   1.422       .  A
C1243      C1250   1.514   1_565  S
C1244      C1245   1.412       .  A
C1244      H1249   1.083       .  S
C1245      C1246   1.427       .  A
C1246      C1247   1.531       .  S
C1247      F1251   1.386       .  S
C1247      F1252   1.383       .  S
C1247      F1253   1.383       .  S
C1250      F1254   1.383       .  S
C1250      F1255   1.381       .  S
C1250      F1256   1.384   1_545  S
C1257      C1258   1.403       .  A
C1257      C1262   1.419       .  A
C1257      H1264   1.083       .  S
C1258      C1259   1.420       .  A
C1259      C1260   1.404       .  A
C1259      C1266   1.513   1_455  S
C1260      C1261   1.397       .  A
C1260      H1265   1.082       .  S
C1261      C1262   1.424       .  A
C1262      C1263   1.514       .  S
C1263      F1267   1.385       .  S
C1263      F1268   1.383       .  S
C1263      F1269   1.377       .  S
C1266      F1270   1.382       .  S
C1266      F1271   1.379       .  S
C1266      F1272   1.383   1_655  S
C1273      C1274   1.404       .  A
C1273      C1278   1.413       .  A
C1273      H1280   1.081       .  S
C1274      C1275   1.412       .  A
C1275      C1276   1.399       .  A
C1275      C1282   1.507       .  S
C1276      C1277   1.397       .  A
C1276      H1281   1.085       .  S
C1277      C1278   1.414       .  A
C1278      C1279   1.516       .  S
C1279      F1283   1.385       .  S
C1279      F1284   1.382       .  S
C1279      F1285   1.381       .  S
C1282      F1286   1.383       .  S
C1282      F1287   1.383       .  S
C1282      F1288   1.384       .  S
C1289      C1290   1.411       .  A
C1289      C1294   1.425       .  A
C1289      H1296   1.083       .  S
C1290      C1291   1.421       .  A
C1291      C1292   1.401       .  A
C1291      C1298   1.520       .  S
C1292      C1293   1.400       .  A
C1292      H1297   1.079       .  S
C1293      C1294   1.422       .  A
C1294      C1295   1.515       .  S
C1295      F1299   1.384       .  S
C1295      F1300   1.383       .  S
C1295      F1301   1.383       .  S
C1298      F1302   1.383       .  S
C1298      F1303   1.372   1_554  S
C1298      F1304   1.382   1_554  S
C1305      C1306   1.393       .  A
C1305      C1310   1.398       .  A
C1305      H1312   1.084       .  S
C1306      C1307   1.404       .  A
C1307      C1308   1.407       .  A
C1307      C1314   1.516       .  S
C1308      C1309   1.414       .  A
C1308      H1313   1.082       .  S
C1309      C1310   1.427       .  A
C1310      C1311   1.520       .  S
C1311      F1315   1.385       .  S
C1311      F1316   1.380       .  S
C1311      F1317   1.383       .  S
C1314      F1318   1.383       .  S
C1314      F1319   1.383       .  S
C1314      F1320   1.384       .  S
C1321      C1322   1.395   1_556  A
C1321      C1326   1.401       .  A
C1321      H1328   1.082       .  S
C1322      C1323   1.424       .  A
C1323      C1324   1.413       .  A
C1323      C1330   1.514       .  S
C1324      C1325   1.401       .  A
C1324      H1329   1.084       .  S
C1325      C1326   1.419   1_554  A
C1326      C1327   1.510       .  S
C1327      F1331   1.384       .  S
C1327      F1332   1.383       .  S
C1327      F1333   1.382   1_556  S
C1330      F1334   1.379       .  S
C1330      F1335   1.381       .  S
C1330      F1336   1.383       .  S
C1337      C1338   1.401       .  A
C1337      C1342   1.408       .  A
C1337      H1344   1.084       .  S
C1338      C1339   1.413       .  A
C1339      C1340   1.411       .  A
C1339      C1346   1.516       .  S
C1340      C1341   1.406       .  A
C1340      H1345   1.083       .  S
C1341      C1342   1.420       .  A
C1342      C1343   1.518       .  S
C1343      F1347   1.385       .  S
C1343      F1348   1.382       .  S
C1343      F1349   1.384       .  S
C1346      F1350   1.383   1_554  S
C1346      F1351   1.383       .  S
C1346      F1352   1.384   1_554  S
C1353      C1354   1.416       .  A
C1353      C1358   1.423       .  A
C1353      H1360   1.082       .  S
C1354      C1355   1.433       .  A
C1355      C1356   1.404       .  A
C1355      C1362   1.531       .  S
C1356      C1357   1.404       .  A
C1356      H1361   1.081       .  S
C1357      C1358   1.416       .  A
C1358      C1359   1.514       .  S
C1359      F1363   1.384       .  S
C1359      F1364   1.381       .  S
C1359      F1365   1.383       .  S
C1362      F1366   1.378       .  S
C1362      F1367   1.381       .  S
C1362      F1368   1.385       .  S
C1369      C1370   1.405       .  A
C1369      C1374   1.416       .  A
C1369      H1376   1.082       .  S
C1370      C1371   1.418       .  A
C1371      C1372   1.400       .  A
C1371      C1378   1.510       .  S
C1372      C1373   1.396       .  A
C1372      H1377   1.084       .  S
C1373      C1374   1.416       .  A
C1374      C1375   1.514       .  S
C1375      F1379   1.382       .  S
C1375      F1380   1.383       .  S
C1375      F1381   1.382       .  S
C1378      F1382   1.382       .  S
C1378      F1383   1.378       .  S
C1378      F1384   1.385       .  S
C1385      C1386   1.406       .  A
C1385      C1390   1.408       .  A
C1385      H1392   1.084       .  S
C1386      C1387   1.424       .  A
C1387      C1388   1.414       .  A
C1387      C1394   1.518       .  S
C1388      C1389   1.402       .  A
C1388      H1393   1.083       .  S
C1389      C1390   1.418       .  A
C1390      C1391   1.518       .  S
C1391      F1395   1.380       .  S
C1391      F1396   1.379       .  S
C1391      F1397   1.383       .  S
C1394      F1398   1.377       .  S
C1394      F1399   1.384       .  S
C1394      F1400   1.385       .  S
C1401      C1402   1.396       .  A
C1401      C1406   1.401       .  A
C1401      H1408   1.083       .  S
C1402      C1403   1.407       .  A
C1403      C1404   1.414       .  A
C1403      C1410   1.515       .  S
C1404      C1405   1.416       .  A
C1404      H1409   1.082       .  S
C1405      C1406   1.432       .  A
C1406      C1407   1.526       .  S
C1407      F1411   1.386       .  S
C1407      F1412   1.383       .  S
C1407      F1413   1.384       .  S
C1410      F1414   1.383       .  S
C1410      F1415   1.383       .  S
C1410      F1416   1.384       .  S
C1417      C1418   1.404       .  A
C1417      C1422   1.406       .  A
C1417      H1424   1.078       .  S
C1418      C1419   1.421       .  A
C1419      C1420   1.398       .  A
C1419      C1426   1.513       .  S
C1420      C1421   1.396       .  A
C1420      H1425   1.086       .  S
C1421      C1422   1.414       .  A
C1422      C1423   1.518       .  S
C1423      F1427   1.384       .  S
C1423      F1428   1.382       .  S
C1423      F1429   1.383       .  S
C1426      F1430   1.372       .  S
C1426      F1431   1.382       .  S
C1426      F1432   1.383       .  S
C1433      C1434   1.403       .  A
C1433      C1438   1.411       .  A
C1433      H1440   1.084       .  S
C1434      C1435   1.415       .  A
C1435      C1436   1.409       .  A
C1435      C1442   1.516       .  S
C1436      C1437   1.402       .  A
C1436      H1441   1.083       .  S
C1437      C1438   1.419       .  A
C1438      C1439   1.518       .  S
C1439      F1443   1.384       .  S
C1439      F1444   1.382       .  S
C1439      F1445   1.383       .  S
C1442      F1446   1.383   1_554  S
C1442      F1447   1.384   1_554  S
C1442      F1448   1.384   1_554  S
C1449      C1450   1.398       .  A
C1449      C1454   1.404       .  A
C1449      H1456   1.085   1_554  S
C1450      C1451   1.418       .  A
C1451      C1452   1.408       .  A
C1451      C1458   1.515       .  S
C1452      C1453   1.405       .  A
C1452      H1457   1.083       .  S
C1453      C1454   1.422       .  A
C1454      C1455   1.515   1_554  S
C1455      F1459   1.383   1_556  S
C1455      F1460   1.383       .  S
C1455      F1461   1.384       .  S
C1458      F1462   1.381       .  S
C1458      F1463   1.382       .  S
C1458      F1464   1.383       .  S
C1465      C1466   1.402       .  A
C1465      C1470   1.408       .  A
C1465      H1472   1.084       .  S
C1466      C1467   1.416       .  A
C1467      C1468   1.396       .  A
C1467      C1474   1.513       .  S
C1468      C1469   1.395       .  A
C1468      H1473   1.082       .  S
C1469      C1470   1.417       .  A
C1470      C1471   1.513       .  S
C1471      F1475   1.383       .  S
C1471      F1476   1.382       .  S
C1471      F1477   1.381       .  S
C1474      F1478   1.385       .  S
C1474      F1479   1.382       .  S
C1474      F1480   1.383       .  S
C1481      C1482   1.403       .  A
C1481      C1486   1.393       .  A
C1481      H1488   1.083       .  S
C1482      C1483   1.417       .  A
C1483      C1484   1.416       .  A
C1483      C1490   1.513       .  S
C1484      C1485   1.406       .  A
C1484      H1489   1.083       .  S
C1485      C1486   1.411       .  A
C1486      C1487   1.511       .  S
C1487      F1491   1.385       .  S
C1487      F1492   1.382       .  S
C1487      F1493   1.378       .  S
C1490      F1494   1.383       .  S
C1490      F1495   1.383       .  S
C1490      F1496   1.385       .  S
C1497      C1498   1.405       .  A
C1497      C1502   1.406       .  A
C1497      H1504   1.082       .  S
C1498      C1499   1.417   1_554  A
C1499      C1500   1.410   1_556  A
C1499      C1506   1.514       .  S
C1500      C1501   1.406       .  A
C1500      H1505   1.084   1_554  S
C1501      C1502   1.413       .  A
C1502      C1503   1.516       .  S
C1503      F1507   1.385       .  S
C1503      F1508   1.380       .  S
C1503      F1509   1.383       .  S
C1506      F1510   1.380       .  S
C1506      F1511   1.379       .  S
C1506      F1512   1.384       .  S
C1513      C1514   1.413       .  A
C1513      C1518   1.415       .  A
C1513      H1520   1.082       .  S
C1514      C1515   1.426       .  A
C1515      C1516   1.414       .  A
C1515      C1522   1.522       .  S
C1516      C1517   1.408       .  A
C1516      H1521   1.083       .  S
C1517      C1518   1.418       .  A
C1518      C1519   1.519       .  S
C1519      F1523   1.384       .  S
C1519      F1524   1.383       .  S
C1519      F1525   1.383       .  S
C1522      F1526   1.383       .  S
C1522      F1527   1.384       .  S
C1522      F1528   1.385       .  S
C1529      C1530   1.412       .  A
C1529      C1534   1.416       .  A
C1529      H1536   1.082       .  S
C1530      C1531   1.423       .  A
C1531      C1532   1.404       .  A
C1531      C1538   1.518       .  S
C1532      C1533   1.399       .  A
C1532      H1537   1.085       .  S
C1533      C1534   1.412       .  A
C1534      C1535   1.515       .  S
C1535      F1539   1.385       .  S
C1535      F1540   1.383       .  S
C1535      F1541   1.383       .  S
C1538      F1542   1.384       .  S
C1538      F1543   1.383       .  S
C1538      F1544   1.385       .  S
C1545      C1546   1.410       .  A
C1545      C1550   1.409       .  A
C1545      H1552   1.083       .  S
C1546      C1547   1.419       .  A
C1547      C1548   1.415       .  A
C1547      C1554   1.517       .  S
C1548      C1549   1.412       .  A
C1548      H1553   1.083       .  S
C1549      C1550   1.416       .  A
C1550      C1551   1.514       .  S
C1551      F1555   1.385       .  S
C1551      F1556   1.382       .  S
C1551      F1557   1.382       .  S
C1554      F1558   1.383       .  S
C1554      F1559   1.382       .  S
C1554      F1560   1.385       .  S
C1561      C1562   1.402       .  A
C1561      C1566   1.409       .  A
C1561      H1568   1.083       .  S
C1562      C1563   1.421       .  A
C1563      C1564   1.407       .  A
C1563      C1570   1.521       .  S
C1564      C1565   1.400       .  A
C1564      H1569   1.079       .  S
C1565      C1566   1.411       .  A
C1566      C1567   1.511       .  S
C1567      F1571   1.384       .  S
C1567      F1572   1.380       .  S
C1567      F1573   1.382       .  S
C1570      F1574   1.381       .  S
C1570      F1575   1.378       .  S
C1570      F1576   1.383       .  S
C1577      C1578   1.406       .  A
C1577      C1582   1.405       .  A
C1577      H1584   1.084       .  S
C1578      C1579   1.429       .  A
C1579      C1580   1.414       .  A
C1579      C1586   1.519       .  S
C1580      C1581   1.401       .  A
C1580      H1585   1.083       .  S
C1581      C1582   1.416       .  A
C1582      C1583   1.518       .  S
C1583      F1587   1.384       .  S
C1583      F1588   1.382       .  S
C1583      F1589   1.379       .  S
C1586      F1590   1.380       .  S
C1586      F1591   1.383       .  S
C1586      F1592   1.385       .  S
C1593      C1594   1.396       .  A
C1593      C1598   1.397       .  A
C1593      H1600   1.084       .  S
C1594      C1595   1.414       .  A
C1595      C1596   1.419       .  A
C1595      C1602   1.513       .  S
C1596      C1597   1.409       .  A
C1596      H1601   1.083       .  S
C1597      C1598   1.419       .  A
C1598      C1599   1.521       .  S
C1599      F1603   1.385       .  S
C1599      F1604   1.382       .  S
C1599      F1605   1.382       .  S
C1602      F1606   1.383       .  S
C1602      F1607   1.382       .  S
C1602      F1608   1.384       .  S
C1609      C1610   1.405       .  A
C1609      C1614   1.418       .  A
C1609      H1616   1.083       .  S
C1610      C1611   1.416       .  A
C1611      C1612   1.402       .  A
C1611      C1618   1.518       .  S
C1612      C1613   1.405       .  A
C1612      H1617   1.085       .  S
C1613      C1614   1.425       .  A
C1614      C1615   1.519   1_455  S
C1615      F1619   1.385       .  S
C1615      F1620   1.380       .  S
C1615      F1621   1.383       .  S
C1618      F1622   1.383       .  S
C1618      F1623   1.380       .  S
C1618      F1624   1.384       .  S
C1625      C1626   1.401       .  A
C1625      C1630   1.409       .  A
C1625      H1632   1.083       .  S
C1626      C1627   1.424       .  A
C1627      C1628   1.408       .  A
C1627      C1634   1.521       .  S
C1628      C1629   1.404       .  A
C1628      H1633   1.083       .  S
C1629      C1630   1.427       .  A
C1630      C1631   1.520       .  S
C1631      F1635   1.385       .  S
C1631      F1636   1.381       .  S
C1631      F1637   1.383       .  S
C1634      F1638   1.383       .  S
C1634      F1639   1.383       .  S
C1634      F1640   1.385       .  S
C1641      C1642   1.398       .  A
C1641      C1646   1.400       .  A
C1641      H1648   1.079       .  S
C1642      C1643   1.406       .  A
C1643      C1644   1.409       .  A
C1643      C1650   1.514       .  S
C1644      C1645   1.417       .  A
C1644      H1649   1.084       .  S
C1645      C1646   1.427       .  A
C1646      C1647   1.524       .  S
C1647      F1651   1.386       .  S
C1647      F1652   1.377       .  S
C1647      F1653   1.383       .  S
C1650      F1654   1.382       .  S
C1650      F1655   1.383       .  S
C1650      F1656   1.384       .  S
C1657      C1658   1.399       .  A
C1657      C1662   1.406       .  A
C1657      H1664   1.082       .  S
C1658      C1659   1.421       .  A
C1659      C1660   1.409       .  A
C1659      C1666   1.514       .  S
C1660      C1661   1.401       .  A
C1660      H1665   1.084       .  S
C1661      C1662   1.419       .  A
C1662      C1663   1.516       .  S
C1663      F1667   1.384       .  S
C1663      F1668   1.383       .  S
C1663      F1669   1.382       .  S
C1666      F1670   1.379       .  S
C1666      F1671   1.381       .  S
C1666      F1672   1.383       .  S
C1673      C1674   1.405       .  A
C1673      C1678   1.418       .  A
C1673      H1680   1.083       .  S
C1674      C1675   1.414       .  A
C1675      C1676   1.406       .  A
C1675      C1682   1.512       .  S
C1676      C1677   1.401       .  A
C1676      H1681   1.084       .  S
C1677      C1678   1.418       .  A
C1678      C1679   1.514       .  S
C1679      F1683   1.385       .  S
C1679      F1684   1.383       .  S
C1679      F1685   1.379       .  S
C1682      F1686   1.383       .  S
C1682      F1687   1.380       .  S
C1682      F1688   1.380       .  S
C1689      C1690   1.405       .  A
C1689      C1694   1.407       .  A
C1689      H1696   1.082       .  S
C1690      C1691   1.430       .  A
C1691      C1692   1.409       .  A
C1691      C1698   1.523       .  S
C1692      C1693   1.403       .  A
C1692      H1697   1.082       .  S
C1693      C1694   1.426       .  A
C1694      C1695   1.523       .  S
C1695      F1699   1.385       .  S
C1695      F1700   1.383       .  S
C1695      F1701   1.384       .  S
C1698      F1702   1.383       .  S
C1698      F1703   1.384       .  S
C1698      F1704   1.385       .  S
C1705      C1706   1.401       .  A
C1705      C1710   1.407       .  A
C1705      H1712   1.080       .  S
C1706      C1707   1.411       .  A
C1707      C1708   1.405       .  A
C1707      C1714   1.507       .  S
C1708      C1709   1.403       .  A
C1708      H1713   1.084       .  S
C1709      C1710   1.417       .  A
C1710      C1711   1.510       .  S
C1711      F1715   1.384       .  S
C1711      F1716   1.379       .  S
C1711      F1717   1.383       .  S
C1714      F1718   1.382       .  S
C1714      F1719   1.383       .  S
C1714      F1720   1.383       .  S
C1721      C1722   1.392       .  A
C1721      C1726   1.396       .  A
C1721      H1728   1.082       .  S
C1722      C1723   1.409       .  A
C1723      C1724   1.417       .  A
C1723      C1730   1.513       .  S
C1724      C1725   1.414       .  A
C1724      H1729   1.083       .  S
C1725      C1726   1.435       .  A
C1726      C1727   1.525       .  S
C1727      F1731   1.385       .  S
C1727      F1732   1.378       .  S
C1727      F1733   1.383       .  S
C1730      F1734   1.383       .  S
C1730      F1735   1.379       .  S
C1730      F1736   1.384       .  S
C1737      C1738   1.393       .  A
C1737      C1742   1.401       .  A
C1737      H1744   1.084       .  S
C1738      C1739   1.420       .  A
C1739      C1740   1.414       .  A
C1739      C1746   1.517       .  S
C1740      C1741   1.405       .  A
C1740      H1745   1.084       .  S
C1741      C1742   1.422       .  A
C1742      C1743   1.509       .  S
C1743      F1747   1.385       .  S
C1743      F1748   1.381       .  S
C1743      F1749   1.376       .  S
C1746      F1750   1.383       .  S
C1746      F1751   1.382       .  S
C1746      F1752   1.383       .  S
C1753      C1754   1.400       .  A
C1753      C1758   1.401       .  A
C1753      H1760   1.083       .  S
C1754      C1755   1.421       .  A
C1755      C1756   1.406       .  A
C1755      C1762   1.510       .  S
C1756      C1757   1.397       .  A
C1756      H1761   1.084       .  S
C1757      C1758   1.412       .  A
C1758      C1759   1.507       .  S
C1759      F1763   1.383       .  S
C1759      F1764   1.385       .  S
C1759      F1765   1.379       .  S
C1762      F1766   1.378       .  S
C1762      F1767   1.381       .  S
C1762      F1768   1.385       .  S
C1769      C1770   1.402       .  A
C1769      C1774   1.403       .  A
C1769      H1776   1.084       .  S
C1770      C1771   1.419       .  A
C1771      C1772   1.414       .  A
C1771      C1778   1.512       .  S
C1772      C1773   1.408       .  A
C1772      H1777   1.084       .  S
C1773      C1774   1.416       .  A
C1774      C1775   1.510       .  S
C1775      F1779   1.384       .  S
C1775      F1780   1.382       .  S
C1775      F1781   1.383       .  S
C1778      F1782   1.381       .  S
C1778      F1783   1.382       .  S
C1778      F1784   1.383       .  S
C1785      C1786   1.413       .  A
C1785      C1790   1.416       .  A
C1785      H1792   1.083       .  S
C1786      C1787   1.438       .  A
C1787      C1788   1.399       .  A
C1787      C1794   1.533       .  S
C1788      C1789   1.393       .  A
C1788      H1793   1.084       .  S
C1789      C1790   1.410       .  A
C1790      C1791   1.514       .  S
C1791      F1795   1.384       .  S
C1791      F1796   1.383       .  S
C1791      F1797   1.382       .  S
C1794      F1798   1.380       .  S
C1794      F1799   1.381       .  S
C1794      F1800   1.385       .  S
C1801      C1802   1.399       .  A
C1801      C1806   1.400       .  A
C1801      H1808   1.085       .  S
C1802      C1803   1.415       .  A
C1803      C1804   1.412       .  A
C1803      C1810   1.514       .  S
C1804      C1805   1.404       .  A
C1804      H1809   1.083       .  S
C1805      C1806   1.412       .  A
C1806      C1807   1.510       .  S
C1807      F1811   1.383       .  S
C1807      F1812   1.383       .  S
C1807      F1813   1.382       .  S
C1810      F1814   1.382       .  S
C1810      F1815   1.382       .  S
C1810      F1816   1.385       .  S
C1817      C1818   1.397       .  A
C1817      C1822   1.403       .  A
C1817      H1824   1.084       .  S
C1818      C1819   1.416       .  A
C1819      C1820   1.409       .  A
C1819      C1826   1.508       .  S
C1820      C1821   1.401       .  A
C1820      H1825   1.084       .  S
C1821      C1822   1.416       .  A
C1822      C1823   1.507       .  S
C1823      F1827   1.385       .  S
C1823      F1828   1.378       .  S
C1823      F1829   1.383       .  S
C1826      F1830   1.380       .  S
C1826      F1831   1.383       .  S
C1826      F1832   1.381       .  S
C1833      C1834   1.403       .  A
C1833      C1838   1.410       .  A
C1833      H1840   1.083       .  S
C1834      C1835   1.418       .  A
C1835      C1836   1.401       .  A
C1835      C1842   1.509       .  S
C1836      C1837   1.397       .  A
C1836      H1841   1.084       .  S
C1837      C1838   1.416       .  A
C1838      C1839   1.516       .  S
C1839      F1843   1.385       .  S
C1839      F1844   1.384       .  S
C1839      F1845   1.381       .  S
C1842      F1846   1.380       .  S
C1842      F1847   1.381       .  S
C1842      F1848   1.385       .  S
C1849      C1850   1.403       .  A
C1849      C1854   1.412       .  A
C1849      H1856   1.083       .  S
C1850      C1851   1.416       .  A
C1851      C1852   1.414       .  A
C1851      C1858   1.516       .  S
C1852      C1853   1.406       .  A
C1852      H1857   1.082       .  S
C1853      C1854   1.416       .  A
C1854      C1855   1.516       .  S
C1855      F1859   1.384       .  S
C1855      F1860   1.383       .  S
C1855      F1861   1.382       .  S
C1858      F1862   1.383       .  S
C1858      F1863   1.383       .  S
C1858      F1864   1.385       .  S
C1865      C1866   1.405       .  A
C1865      C1870   1.402       .  A
C1865      H1872   1.083       .  S
C1866      C1867   1.417       .  A
C1867      C1868   1.412       .  A
C1867      C1874   1.512       .  S
C1868      C1869   1.402       .  A
C1868      H1873   1.082       .  S
C1869      C1870   1.412       .  A
C1870      C1871   1.516       .  S
C1871      F1875   1.385       .  S
C1871      F1876   1.378       .  S
C1871      F1877   1.383       .  S
C1874      F1878   1.380       .  S
C1874      F1879   1.383       .  S
C1874      F1880   1.385       .  S
C1881      C1882   1.402       .  A
C1881      C1886   1.405       .  A
C1881      H1888   1.084       .  S
C1882      C1883   1.411       .  A
C1883      C1884   1.406   1_655  A
C1883      C1890   1.515       .  S
C1884      C1885   1.403       .  A
C1884      H1889   1.084       .  S
C1885      C1886   1.413   1_455  A
C1886      C1887   1.518       .  S
C1887      F1891   1.385       .  S
C1887      F1892   1.382       .  S
C1887      F1893   1.383       .  S
C1890      F1894   1.383       .  S
C1890      F1895   1.383       .  S
C1890      F1896   1.385   1_655  S
C1897      C1898   1.390       .  A
C1897      C1902   1.397       .  A
C1897      H1904   1.077   1_556  S
C1898      C1899   1.419       .  A
C1899      C1900   1.414       .  A
C1899      C1906   1.513       .  S
C1900      C1901   1.404       .  A
C1900      H1905   1.082       .  S
C1901      C1902   1.416       .  A
C1902      C1903   1.506   1_556  S
C1903      F1907   1.385       .  S
C1903      F1908   1.383   1_554  S
C1903      F1909   1.384       .  S
C1906      F1910   1.379       .  S
C1906      F1911   1.383       .  S
C1906      F1912   1.385       .  S
C1913      C1914   1.406       .  A
C1913      C1918   1.418       .  A
C1913      H1920   1.083       .  S
C1914      C1915   1.423       .  A
C1915      C1916   1.392       .  A
C1915      C1922   1.522       .  S
C1916      C1917   1.396       .  A
C1916      H1921   1.083       .  S
C1917      C1918   1.419       .  A
C1918      C1919   1.515       .  S
C1919      F1923   1.385       .  S
C1919      F1924   1.383       .  S
C1919      F1925   1.381       .  S
C1922      F1926   1.377       .  S
C1922      F1927   1.380       .  S
C1922      F1928   1.385       .  S
C1929      C1930   1.405       .  A
C1929      C1934   1.414       .  A
C1929      H1936   1.083       .  S
C1930      C1931   1.422       .  A
C1931      C1932   1.407       .  A
C1931      C1938   1.506       .  S
C1932      C1933   1.395       .  A
C1932      H1937   1.084       .  S
C1933      C1934   1.416       .  A
C1934      C1935   1.512       .  S
C1935      F1939   1.385       .  S
C1935      F1940   1.383       .  S
C1935      F1941   1.380       .  S
C1938      F1942   1.380       .  S
C1938      F1943   1.381       .  S
C1938      F1944   1.385       .  S
C1945      C1946   1.402       .  A
C1945      C1950   1.412       .  A
C1945      H1952   1.083       .  S
C1946      C1947   1.409       .  A
C1947      C1948   1.404       .  A
C1947      C1954   1.510       .  S
C1948      C1949   1.404       .  A
C1948      H1953   1.081       .  S
C1949      C1950   1.422       .  A
C1950      C1951   1.515       .  S
C1951      F1955   1.385       .  S
C1951      F1956   1.381       .  S
C1951      F1957   1.384       .  S
C1954      F1958   1.378       .  S
C1954      F1959   1.384       .  S
C1954      F1960   1.384       .  S
C1961      C1962   1.411       .  A
C1961      C1966   1.423       .  A
C1961      H1968   1.083       .  S
C1962      C1963   1.427       .  A
C1963      C1964   1.396       .  A
C1963      C1970   1.514       .  S
C1964      C1965   1.394       .  A
C1964      H1969   1.084       .  S
C1965      C1966   1.418       .  A
C1966      C1967   1.514       .  S
C1967      F1971   1.384       .  S
C1967      F1972   1.383       .  S
C1967      F1973   1.383       .  S
C1970      F1974   1.383       .  S
C1970      F1975   1.375       .  S
C1970      F1976   1.385       .  S
C1977      C1978   1.406       .  A
C1977      C1982   1.408   1_545  A
C1977      H1984   1.083       .  S
C1978      C1979   1.420       .  A
C1979      C1980   1.415   1_545  A
C1979      C1986   1.515       .  S
C1980      C1981   1.404       .  A
C1980      H1985   1.083       .  S
C1981      C1982   1.412       .  A
C1982      C1983   1.518       .  S
C1983      F1987   1.384       .  S
C1983      F1988   1.383       .  S
C1983      F1989   1.381       .  S
C1986      F1990   1.383       .  S
C1986      F1991   1.380       .  S
C1986      F1992   1.385       .  S
C1993      C1994   1.405       .  A
C1993      C1998   1.414       .  A
C1993      H2000   1.083       .  S
C1994      C1995   1.410       .  A
C1995      C1996   1.402       .  A
C1995      C2002   1.511       .  S
C1996      C1997   1.401       .  A
C1996      H2001   1.082       .  S
C1997      C1998   1.415       .  A
C1998      C1999   1.514       .  S
C1999      F2003   1.382       .  S
C1999      F2004   1.382       .  S
C1999      F2005   1.384       .  S
C2002      F2006   1.380       .  S
C2002      F2007   1.384       .  S
C2002      F2008   1.384       .  S
C2009      C2010   1.395       .  A
C2009      C2014   1.393       .  A
C2009      H2016   1.080       .  S
C2010      C2011   1.416       .  A
C2011      C2012   1.415       .  A
C2011      C2018   1.514       .  S
C2012      C2013   1.407       .  A
C2012      H2017   1.083       .  S
C2013      C2014   1.415       .  A
C2014      C2015   1.513       .  S
C2015      F2019   1.384       .  S
C2015      F2020   1.382       .  S
C2015      F2021   1.383       .  S
C2018      F2022   1.383       .  S
C2018      F2023   1.383       .  S
C2018      F2024   1.383       .  S
C2025      C2026   1.407       .  A
C2025      C2030   1.401       .  A
C2025      H2032   1.081       .  S
C2026      C2027   1.421       .  A
C2027      C2028   1.418       .  A
C2027      C2034   1.515       .  S
C2028      C2029   1.406       .  A
C2028      H2033   1.080       .  S
C2029      C2030   1.407       .  A
C2030      C2031   1.512       .  S
C2031      F2035   1.384       .  S
C2031      F2036   1.380       .  S
C2031      F2037   1.384       .  S
C2034      F2038   1.377       .  S
C2034      F2039   1.383       .  S
C2034      F2040   1.385       .  S
C2041      C2042   1.412       .  A
C2041      C2046   1.425       .  A
C2041      H2048   1.083       .  S
C2042      C2043   1.421       .  A
C2043      C2044   1.400       .  A
C2043      C2050   1.513       .  S
C2044      C2045   1.399       .  A
C2044      H2049   1.084       .  S
C2045      C2046   1.420       .  A
C2046      C2047   1.513       .  S
C2047      F2051   1.383       .  S
C2047      F2052   1.379       .  S
C2047      F2053   1.384       .  S
C2050      F2054   1.383       .  S
C2050      F2055   1.383       .  S
C2050      F2056   1.384       .  S
C2057      C2058   1.400       .  A
C2057      C2062   1.403       .  A
C2057      H2064   1.083       .  S
C2058      C2059   1.411       .  A
C2059      C2060   1.403       .  A
C2059      C2066   1.515       .  S
C2060      C2061   1.404       .  A
C2060      H2065   1.082       .  S
C2061      C2062   1.421       .  A
C2062      C2063   1.517       .  S
C2063      F2067   1.385       .  S
C2063      F2068   1.382       .  S
C2063      F2069   1.378       .  S
C2066      F2070   1.382       .  S
C2066      F2071   1.377       .  S
C2066      F2072   1.384       .  S
C2073      C2074   1.405       .  A
C2073      C2078   1.414       .  A
C2073      H2080   1.075       .  S
C2074      C2075   1.418       .  A
C2075      C2076   1.397       .  A
C2075      C2082   1.517       .  S
C2076      C2077   1.400       .  A
C2076      H2081   1.084       .  S
C2077      C2078   1.415       .  A
C2078      C2079   1.516       .  S
C2079      F2083   1.382       .  S
C2079      F2084   1.382       .  S
C2079      F2085   1.383       .  S
C2082      F2086   1.381       .  S
C2082      F2087   1.377       .  S
C2082      F2088   1.386       .  S
C2089      C2090   1.403       .  A
C2089      C2094   1.413       .  A
C2089      H2096   1.083       .  S
C2090      C2091   1.422   1_556  A
C2091      C2092   1.401       .  A
C2091      C2098   1.511       .  S
C2092      C2093   1.393   1_554  A
C2092      H2097   1.085       .  S
C2093      C2094   1.419       .  A
C2094      C2095   1.513       .  S
C2095      F2099   1.385       .  S
C2095      F2100   1.376       .  S
C2095      F2101   1.383       .  S
C2098      F2102   1.381       .  S
C2098      F2103   1.383       .  S
C2098      F2104   1.384       .  S
C2105      C2106   1.403       .  A
C2105      C2110   1.410       .  A
C2105      H2112   1.084       .  S
C2106      C2107   1.419       .  A
C2107      C2108   1.410       .  A
C2107      C2114   1.511   1_556  S
C2108      C2109   1.405       .  A
C2108      H2113   1.085   1_556  S
C2109      C2110   1.418       .  A
C2110      C2111   1.513       .  S
C2111      F2115   1.377       .  S
C2111      F2116   1.383       .  S
C2111      F2117   1.383       .  S
C2114      F2118   1.379       .  S
C2114      F2119   1.381       .  S
C2114      F2120   1.383       .  S
C2121      C2122   1.406       .  A
C2121      C2126   1.401       .  A
C2121      H2128   1.078       .  S
C2122      C2123   1.421       .  A
C2123      C2124   1.425       .  A
C2123      C2130   1.516       .  S
C2124      C2125   1.416       .  A
C2124      H2129   1.082       .  S
C2125      C2126   1.429       .  A
C2126      C2127   1.528       .  S
C2127      F2131   1.385       .  S
C2127      F2132   1.383       .  S
C2127      F2133   1.379       .  S
C2130      F2134   1.383       .  S
C2130      F2135   1.383       .  S
C2130      F2136   1.384       .  S
C2137      C2138   1.400       .  A
C2137      C2142   1.410       .  A
C2137      H2144   1.083       .  S
C2138      C2139   1.426       .  A
C2139      C2140   1.402       .  A
C2139      C2146   1.519       .  S
C2140      C2141   1.398       .  A
C2140      H2145   1.083       .  S
C2141      C2142   1.428       .  A
C2142      C2143   1.521       .  S
C2143      F2147   1.385       .  S
C2143      F2148   1.384       .  S
C2143      F2149   1.383       .  S
C2146      F2150   1.382       .  S
C2146      F2151   1.378       .  S
C2146      F2152   1.385       .  S
C2153      C2154   1.405       .  A
C2153      C2158   1.417       .  A
C2153      H2160   1.083       .  S
C2154      C2155   1.422       .  A
C2155      C2156   1.405       .  A
C2155      C2162   1.518       .  S
C2156      C2157   1.400   1_655  A
C2156      H2161   1.085   1_655  S
C2157      C2158   1.421   1_455  A
C2158      C2159   1.513       .  S
C2159      F2163   1.385       .  S
C2159      F2164   1.382   1_655  S
C2159      F2165   1.379       .  S
C2162      F2166   1.384       .  S
C2162      F2167   1.383       .  S
C2162      F2168   1.382       .  S
C2169      C2170   1.402       .  A
C2169      C2174   1.416       .  A
C2169      H2176   1.083       .  S
C2170      C2171   1.429       .  A
C2171      C2172   1.410       .  A
C2171      C2178   1.520       .  S
C2172      C2173   1.403       .  A
C2172      H2177   1.082       .  S
C2173      C2174   1.434       .  A
C2174      C2175   1.522       .  S
C2175      F2179   1.385       .  S
C2175      F2180   1.381       .  S
C2175      F2181   1.384       .  S
C2178      F2182   1.377       .  S
C2178      F2183   1.383       .  S
C2178      F2184   1.385       .  S
C2185      C2186   1.409       .  A
C2185      C2190   1.414       .  A
C2185      H2192   1.083       .  S
C2186      C2187   1.416       .  A
C2187      C2188   1.409       .  A
C2187      C2194   1.518       .  S
C2188      C2189   1.405       .  A
C2188      H2193   1.083       .  S
C2189      C2190   1.413       .  A
C2190      C2191   1.516       .  S
C2191      F2195   1.383       .  S
C2191      F2196   1.383       .  S
C2191      F2197   1.383   1_545  S
C2194      F2198   1.382       .  S
C2194      F2199   1.383       .  S
C2194      F2200   1.385       .  S
C2201      C2202   1.406       .  A
C2201      C2206   1.412       .  A
C2201      H2208   1.083       .  S
C2202      C2203   1.430       .  A
C2203      C2204   1.408       .  A
C2203      C2210   1.524       .  S
C2204      C2205   1.403       .  A
C2204      H2209   1.082       .  S
C2205      C2206   1.425       .  A
C2206      C2207   1.521       .  S
C2207      F2211   1.385       .  S
C2207      F2212   1.384       .  S
C2207      F2213   1.383       .  S
C2210      F2214   1.383       .  S
C2210      F2215   1.380       .  S
C2210      F2216   1.385       .  S
C2217      C2218   1.408       .  A
C2217      C2222   1.423       .  A
C2217      H2224   1.083       .  S
C2218      C2219   1.423       .  A
C2219      C2220   1.395       .  A
C2219      C2226   1.514       .  S
C2220      C2221   1.392       .  A
C2220      H2225   1.081       .  S
C2221      C2222   1.419       .  A
C2222      C2223   1.512       .  S
C2223      F2227   1.377       .  S
C2223      F2228   1.383       .  S
C2223      F2229   1.384       .  S
C2226      F2230   1.382       .  S
C2226      F2231   1.380       .  S
C2226      F2232   1.384       .  S
C2233      C2234   1.399       .  A
C2233      C2238   1.400       .  A
C2233      H2240   1.084       .  S
C2234      C2235   1.412       .  A
C2235      C2236   1.413       .  A
C2235      C2242   1.516       .  S
C2236      C2237   1.408       .  A
C2236      H2241   1.083       .  S
C2237      C2238   1.415       .  A
C2238      C2239   1.512       .  S
C2239      F2243   1.384       .  S
C2239      F2244   1.379       .  S
C2239      F2245   1.381       .  S
C2242      F2246   1.383       .  S
C2242      F2247   1.378       .  S
C2242      F2248   1.384       .  S
C2249      C2250   1.404       .  A
C2249      C2254   1.418       .  A
C2249      H2256   1.083       .  S
C2250      C2251   1.416       .  A
C2251      C2252   1.412       .  A
C2251      C2258   1.515       .  S
C2252      C2253   1.406       .  A
C2252      H2257   1.083       .  S
C2253      C2254   1.422       .  A
C2254      C2255   1.517       .  S
C2255      F2259   1.384       .  S
C2255      F2260   1.381       .  S
C2255      F2261   1.383       .  S
C2258      F2262   1.378       .  S
C2258      F2263   1.383       .  S
C2258      F2264   1.385       .  S
C2265      C2266   1.406       .  A
C2265      C2270   1.412       .  A
C2265      H2272   1.084       .  S
C2266      C2267   1.412       .  A
C2267      C2268   1.410       .  A
C2267      C2274   1.517       .  S
C2268      C2269   1.406       .  A
C2268      H2273   1.083       .  S
C2269      C2270   1.412       .  A
C2270      C2271   1.515       .  S
C2271      F2275   1.384       .  S
C2271      F2276   1.383       .  S
C2271      F2277   1.384       .  S
C2274      F2278   1.383       .  S
C2274      F2279   1.383       .  S
C2274      F2280   1.384       .  S
C2281      C2282   1.406       .  A
C2281      C2286   1.411       .  A
C2281      H2288   1.083       .  S
C2282      C2283   1.422       .  A
C2283      C2284   1.405       .  A
C2283      C2290   1.522       .  S
C2284      C2285   1.400       .  A
C2284      H2289   1.084       .  S
C2285      C2286   1.417       .  A
C2286      C2287   1.518       .  S
C2287      F2291   1.385       .  S
C2287      F2292   1.382       .  S
C2287      F2293   1.384       .  S
C2290      F2294   1.384       .  S
C2290      F2295   1.383       .  S
C2290      F2296   1.385       .  S
C2297      C2298   1.407       .  A
C2297      C2302   1.404       .  A
C2297      H2304   1.084       .  S
C2298      C2299   1.416       .  A
C2299      C2300   1.407       .  A
C2299      C2306   1.511       .  S
C2300      C2301   1.399       .  A
C2300      H2305   1.083       .  S
C2301      C2302   1.408       .  A
C2302      C2303   1.513       .  S
C2303      F2307   1.382       .  S
C2303      F2308   1.384       .  S
C2303      F2309   1.385       .  S
C2306      F2310   1.381       .  S
C2306      F2311   1.383       .  S
C2306      F2312   1.384       .  S
C2313      C2314   1.395       .  A
C2313      C2318   1.403       .  A
C2313      H2320   1.084       .  S
C2314      C2315   1.412       .  A
C2315      C2316   1.402       .  A
C2315      C2322   1.517       .  S
C2316      C2317   1.401       .  A
C2316      H2321   1.075       .  S
C2317      C2318   1.416       .  A
C2318      C2319   1.504       .  S
C2319      F2323   1.383       .  S
C2319      F2324   1.381       .  S
C2319      F2325   1.377       .  S
C2322      F2326   1.382       .  S
C2322      F2327   1.381       .  S
C2322      F2328   1.385       .  S
C2329      C2330   1.412       .  A
C2329      C2334   1.421       .  A
C2329      H2336   1.082       .  S
C2330      C2331   1.428       .  A
C2331      C2332   1.399       .  A
C2331      C2338   1.528       .  S
C2332      C2333   1.402       .  A
C2332      H2337   1.083       .  S
C2333      C2334   1.417       .  A
C2334      C2335   1.514       .  S
C2335      F2339   1.384       .  S
C2335      F2340   1.382       .  S
C2335      F2341   1.384       .  S
C2338      F2342   1.381       .  S
C2338      F2343   1.383       .  S
C2338      F2344   1.385       .  S
C2345      C2346   1.413       .  A
C2345      C2350   1.410       .  A
C2345      H2352   1.082       .  S
C2346      C2347   1.416       .  A
C2347      C2348   1.404       .  A
C2347      C2354   1.521       .  S
C2348      C2349   1.413       .  A
C2348      H2353   1.082       .  S
C2349      C2350   1.418       .  A
C2350      C2351   1.520       .  S
C2351      F2355   1.385       .  S
C2351      F2356   1.383       .  S
C2351      F2357   1.383       .  S
C2354      F2358   1.383       .  S
C2354      F2359   1.383       .  S
C2354      F2360   1.385       .  S
C2361      C2362   1.405       .  A
C2361      C2366   1.407       .  A
C2361      H2368   1.084       .  S
C2362      C2363   1.415       .  A
C2363      C2364   1.405       .  A
C2363      C2370   1.512       .  S
C2364      C2365   1.405       .  A
C2364      H2369   1.083       .  S
C2365      C2366   1.418       .  A
C2366      C2367   1.516       .  S
C2367      F2371   1.385       .  S
C2367      F2372   1.381       .  S
C2367      F2373   1.384       .  S
C2370      F2374   1.381       .  S
C2370      F2375   1.384       .  S
C2370      F2376   1.385       .  S
C2377      C2378   1.401       .  A
C2377      C2382   1.405       .  A
C2377      H2384   1.079       .  S
C2378      C2379   1.422       .  A
C2379      C2380   1.411       .  A
C2379      C2386   1.505       .  S
C2380      C2381   1.397       .  A
C2380      H2385   1.083       .  S
C2381      C2382   1.418       .  A
C2382      C2383   1.517       .  S
C2383      F2387   1.383       .  S
C2383      F2388   1.382       .  S
C2383      F2389   1.380       .  S
C2386      F2390   1.382       .  S
C2386      F2391   1.378       .  S
C2386      F2392   1.385       .  S
C2393      C2394   1.405       .  A
C2393      C2398   1.414       .  A
C2393      H2400   1.084       .  S
C2394      C2395   1.417       .  A
C2395      C2396   1.404       .  A
C2395      C2402   1.512       .  S
C2396      C2397   1.400       .  A
C2396      H2401   1.084       .  S
C2397      C2398   1.420       .  A
C2398      C2399   1.514       .  S
C2399      F2403   1.383       .  S
C2399      F2404   1.381       .  S
C2399      F2405   1.383       .  S
C2402      F2406   1.384       .  S
C2402      F2407   1.382       .  S
C2402      F2408   1.385       .  S
C2409      C2410   1.413       .  A
C2409      C2414   1.420       .  A
C2409      H2416   1.083       .  S
C2410      C2411   1.428       .  A
C2411      C2412   1.404       .  A
C2411      C2418   1.522       .  S
C2412      C2413   1.396       .  A
C2412      H2417   1.079       .  S
C2413      C2414   1.413       .  A
C2414      C2415   1.514       .  S
C2415      F2419   1.384       .  S
C2415      F2420   1.383       .  S
C2415      F2421   1.383       .  S
C2418      F2422   1.383       .  S
C2418      F2423   1.379       .  S
C2418      F2424   1.384       .  S
C2425      C2426   1.412       .  A
C2425      C2430   1.409       .  A
C2425      H2432   1.082       .  S
C2426      C2427   1.416       .  A
C2427      C2428   1.405       .  A
C2427      C2434   1.523       .  S
C2428      C2429   1.417       .  A
C2428      H2433   1.081       .  S
C2429      C2430   1.420       .  A
C2430      C2431   1.519       .  S
C2431      F2435   1.385       .  S
C2431      F2436   1.383       .  S
C2431      F2437   1.380       .  S
C2434      F2438   1.384       .  S
C2434      F2439   1.383       .  S
C2434      F2440   1.385       .  S
C2441      C2442   1.400       .  A
C2441      C2446   1.411       .  A
C2441      H2448   1.085       .  S
C2442      C2443   1.416       .  A
C2443      C2444   1.410       .  A
C2443      C2450   1.512       .  S
C2444      C2445   1.403       .  A
C2444      H2449   1.084       .  S
C2445      C2446   1.425       .  A
C2446      C2447   1.516       .  S
C2447      F2451   1.383       .  S
C2447      F2452   1.381       .  S
C2447      F2453   1.381       .  S
C2450      F2454   1.382       .  S
C2450      F2455   1.383       .  S
C2450      F2456   1.384       .  S
C2457      C2458   1.400       .  A
C2457      C2462   1.408       .  A
C2457      H2464   1.084       .  S
C2458      C2459   1.413       .  A
C2459      C2460   1.401       .  A
C2459      C2466   1.514       .  S
C2460      C2461   1.398       .  A
C2460      H2465   1.080       .  S
C2461      C2462   1.416       .  A
C2462      C2463   1.512       .  S
C2463      F2467   1.381       .  S
C2463      F2468   1.380       .  S
C2463      F2469   1.383       .  S
C2466      F2470   1.376       .  S
C2466      F2471   1.383       .  S
C2466      F2472   1.385       .  S
C2473      C2474   1.400       .  A
C2473      C2478   1.400       .  A
C2473      H2480   1.085       .  S
C2474      C2475   1.411       .  A
C2475      C2476   1.408       .  A
C2475      C2482   1.509       .  S
C2476      C2477   1.403       .  A
C2476      H2481   1.080       .  S
C2477      C2478   1.416       .  A
C2478      C2479   1.514       .  S
C2479      F2483   1.384       .  S
C2479      F2484   1.383       .  S
C2479      F2485   1.383       .  S
C2482      F2486   1.385       .  S
C2482      F2487   1.378       .  S
C2482      F2488   1.382       .  S
C2489      C2490   1.409       .  A
C2489      C2494   1.422       .  A
C2489      H2496   1.083       .  S
C2490      C2491   1.421       .  A
C2491      C2492   1.392       .  A
C2491      C2498   1.529       .  S
C2492      C2493   1.407       .  A
C2492      H2497   1.080       .  S
C2493      C2494   1.423       .  A
C2494      C2495   1.516       .  S
C2495      F2499   1.383       .  S
C2495      F2500   1.383       .  S
C2495      F2501   1.385       .  S
C2498      F2502   1.378       .  S
C2498      F2503   1.382       .  S
C2498      F2504   1.385       .  S
C2505      C2506   1.405       .  A
C2505      C2510   1.410   1_565  A
C2505      H2512   1.082       .  S
C2506      C2507   1.417       .  A
C2507      C2508   1.410   1_565  A
C2507      C2514   1.517       .  S
C2508      C2509   1.403       .  A
C2508      H2513   1.083       .  S
C2509      C2510   1.413       .  A
C2510      C2511   1.516       .  S
C2511      F2515   1.384   1_545  S
C2511      F2516   1.383       .  S
C2511      F2517   1.383       .  S
C2514      F2518   1.384       .  S
C2514      F2519   1.382       .  S
C2514      F2520   1.385   1_565  S
