geometry optimzed in LAMMPS
_audit_creation_date              2020-11-30 
_audit_creation_method            'lammps2cif' 
_symmetry_space_group_name_H-M    'P1' 
_symmetry_Int_Tables_number       1 
_symmetry_cell_setting            triclinic 
loop_ 
_symmetry_equiv_pos_as_xyz 
  x,y,z 
_cell_length_a                    44.989257709253486 
_cell_length_b                    44.9662288296961 
_cell_length_c                    25.011259793583502 
_cell_angle_alpha                 89.73968083988267 
_cell_angle_beta                  88.34764706026914 
_cell_angle_gamma                 91.10606602909328 
loop_ 
_atom_site_label 
_atom_site_type_symbol 
_atom_site_fract_x 
_atom_site_fract_y 
_atom_site_fract_z 
_atom_site_charge 
O1          O  0.68133366  0.58621718  0.36394343    -0.79860
O2          O  0.55753378  0.59952037  0.32908705    -0.64550
O3          O  0.62847878  0.59837243  0.40417818    -1.11150
C4          C  0.60440671  0.50008782  0.43894061     1.07030
O5          O  0.53591627  0.58253057  0.40562285    -0.77760
O6          O  0.57570603  0.57627387  0.48719688    -0.65340
Ni7        Ni  0.66120005  0.62159042  0.38315348     1.34870
C8          C  0.60188791  0.57461196  0.50494167     0.85760
O9          O  0.59857443  0.64345176  0.35246197    -0.78300
O10         O  0.63891737  0.65635293  0.39941912    -0.88570
C11         C  0.53430457  0.59370931  0.35828841     0.85340
O12         O  0.65130919  0.62747584  0.31135057    -0.66770
O13         O  0.58093724  0.51390911  0.45570391    -0.86060
C14         C  0.64171077  0.60693463  0.28242975     0.86170
C15         C  0.61554984  0.66309943  0.37425437     1.07740
H16         H  0.58819991  0.54738067  0.34825092     0.39540
O17         O  0.59054519  0.55904027  0.38027964    -1.08720
O18         O  0.61974201  0.55688264  0.48256439    -0.65370
Ni19       Ni  0.62894370  0.55535806  0.40667484     1.26350
O20         O  0.61840752  0.59162416  0.29759758    -0.65600
O21         O  0.62520995  0.51312153  0.41134608    -0.77890
C22         C  0.68831074  0.56834911  0.40041930     0.85550
O23         O  0.66883746  0.55319944  0.42630392    -0.65070
Ni24       Ni  0.56003440  0.54988609  0.43163624     1.27450
Ni25       Ni  0.59452324  0.60054093  0.36399970     1.26060
H26         H  0.62300637  0.60692195  0.43796192     0.40090
O27         O  0.81913238  0.60223440  0.45661401    -0.79860
O28         O  0.92915358  0.60303250  0.60233800    -0.64550
O29         O  0.86681156  0.60174024  0.50671057    -1.11150
C30         C  0.87293069  0.49951146  0.51999957     1.07030
O31         O  0.95144987  0.57695391  0.53683325    -0.77760
O32         O  0.91538212  0.56370408  0.44992312    -0.65340
Ni33       Ni  0.83733117  0.62946004  0.50298252     1.34870
C34         C  0.89051061  0.55998988  0.42724117     0.85760
O35         O  0.90175965  0.64713516  0.55281727    -0.78300
O36         O  0.85474429  0.65997886  0.54452017    -0.88570
C37         C  0.95245607  0.59180486  0.58071367     0.85340
O38         O  0.82225687  0.61177859  0.56729592    -0.66770
O39         O  0.89925097  0.50875091  0.50474982    -0.86060
C40         C  0.83605411  0.61127283  0.61135460     0.86170
C41         C  0.88144806  0.66626150  0.55446972     1.07740
H42         H  0.89149037  0.55466631  0.59384049     0.39540
O43         O  0.89305920  0.56226493  0.55762957    -1.08720
O44         O  0.86882196  0.54887787  0.45359546    -0.65370
Ni45       Ni  0.85663629  0.55978320  0.52456060     1.26350
O46         O  0.86492594  0.60902666  0.61418843    -0.65600
O47         O  0.85315231  0.51748938  0.53827746    -0.77890
C48         C  0.80582410  0.57837580  0.46988725     0.85550
O49         O  0.81729679  0.55911811  0.49932015    -0.65070
Ni50       Ni  0.92418306  0.54433044  0.51857301     1.27450
Ni51       Ni  0.89645563  0.60457615  0.55648786     1.26060
H52         H  0.87715872  0.60445209  0.47316021     0.40090
O53         O  0.84305716  0.53705372  0.11033864    -0.79860
O54         O  0.86059273  0.66443502  0.09080158    -0.64550
O55         O  0.85340987  0.58959979  0.15596529    -1.11150
C56         C  0.75428986  0.61123353  0.18222389     1.07030
O57         O  0.83908382  0.68264078  0.16556061    -0.77760
O58         O  0.82830990  0.63902984  0.24026374    -0.65340
Ni59       Ni  0.87727297  0.55816829  0.13470297     1.34870
C60         C  0.82583194  0.61204352  0.25531043     0.85760
O61         O  0.90155438  0.62314791  0.11500842    -0.78300
O62         O  0.91122627  0.58038650  0.15736954    -0.88570
C63         C  0.85383219  0.68615240  0.12112384     0.85340
O64         O  0.88654969  0.57238599  0.06508623    -0.66770
O65         O  0.76770244  0.63407919  0.20245731    -0.86060
C66         C  0.86778301  0.58382800  0.03546736     0.86170
C67         C  0.91971234  0.60541291  0.13700138     1.07740
H68         H  0.80681043  0.63275303  0.09833138     0.39540
O69         O  0.81644135  0.62891331  0.13164753    -1.08720
O70         O  0.80903794  0.59463390  0.22973542    -0.65370
Ni71       Ni  0.81057758  0.58921321  0.15297631     1.26350
O72         O  0.85267298  0.60623605  0.05154907    -0.65600
O73         O  0.76817003  0.59218314  0.15363274    -0.77890
C74         C  0.82264828  0.52974586  0.14409757     0.85550
O75         O  0.80683233  0.54884037  0.16767311    -0.65070
Ni76       Ni  0.80490980  0.65677395  0.18436450     1.27450
Ni77       Ni  0.85853545  0.62598930  0.12124050     1.26060
H78         H  0.86014041  0.59282250  0.19147992     0.40090
O79         O  0.83722135  0.43300678  0.32367682    -0.79860
O80         O  0.85646162  0.30812416  0.37566651    -0.64550
O81         O  0.85127415  0.37798731  0.29427541    -1.11150
C82         C  0.75516840  0.34966522  0.26075689     1.07030
O83         O  0.83781661  0.28434728  0.30509369    -0.77760
O84         O  0.83190213  0.32191511  0.21861250    -0.65340
Ni85       Ni  0.87310795  0.41257321  0.30753094     1.34870
C86         C  0.82931436  0.34761786  0.19782269     0.85760
O87         O  0.89875097  0.35017317  0.34231429    -0.78300
O88         O  0.90886414  0.39138417  0.29286597    -0.88570
C89         C  0.84766301  0.28430910  0.35275568     0.85340
O90         O  0.87861452  0.40607842  0.38101225    -0.66770
O91         O  0.76975970  0.32615363  0.24816176    -0.86060
C92         C  0.86108625  0.39286641  0.41384660     0.86170
C93         C  0.91708152  0.36762506  0.31615233     1.07740
H94         H  0.80261743  0.33605163  0.35778807     0.39540
O95         O  0.81389177  0.33834128  0.32449016    -1.08720
O96         O  0.81132483  0.36556673  0.21929691    -0.65370
Ni97       Ni  0.80824536  0.37575365  0.29425754     1.26350
O98         O  0.84762347  0.36825232  0.40192842    -0.65600
O99         O  0.76618096  0.36976703  0.29069715    -0.77890
C100        C  0.81866355  0.43608496  0.28703257     0.85550
O101        O  0.80388951  0.41433290  0.26961303    -0.65070
Ni102      Ni  0.80529151  0.30678339  0.27647046     1.27450
Ni103      Ni  0.85574307  0.34444129  0.33647547     1.26060
H104        H  0.85988937  0.37231945  0.26048886     0.40090
O105        O  0.78279707  0.38989073  0.92758426    -0.79860
O106        O  0.90284877  0.36788198  0.82890664    -0.64550
O107        O  0.84186445  0.37489489  0.93411570    -1.11150
C108        C  0.86950967  0.47405385  0.93955430     1.07030
O109        O  0.93341024  0.39152243  0.88475413    -0.77760
O110        O  0.90663972  0.40025460  0.98052272    -0.65340
Ni111      Ni  0.80544626  0.35389301  0.93128810     1.34870
C112        C  0.88433585  0.40275937  0.01205310     0.85760
O113        O  0.86520698  0.32786628  0.87591122    -0.78300
O114        O  0.82659468  0.31704965  0.93234703    -0.88570
C115        C  0.92874260  0.37484792  0.84438967     0.85340
O116        O  0.80291391  0.35075171  0.85610435    -0.66770
O117        O  0.89477589  0.46142345  0.94554856    -0.86060
C118        C  0.81678524  0.36356602  0.81746970     0.86170
C119        C  0.84822202  0.30924071  0.90141962     1.07740
H120        H  0.87357571  0.42218380  0.85174700     0.39540
O121        O  0.87631202  0.41223388  0.88553610    -1.08720
O122        O  0.86307854  0.41866397  0.99863213    -0.65370
Ni123      Ni  0.84326190  0.41720769  0.93192589     1.26350
O124        O  0.84267165  0.37567886  0.82187778    -0.65600
O125        O  0.84639996  0.45922836  0.92718324    -0.77890
C126        C  0.78635014  0.41417209  0.95287810     0.85550
O127        O  0.80983863  0.42036156  0.97589392    -0.65070
Ni128      Ni  0.91254025  0.42464383  0.91620304     1.27450
Ni129      Ni  0.87085120  0.37022264  0.87956463     1.26060
H130        H  0.85024935  0.36771587  0.96650443     0.40090
O131        O  0.68972696  0.40340050  0.00269759    -0.79860
O132        O  0.57201902  0.36123713  0.10915167    -0.64550
O133        O  0.63180044  0.38096083  0.00466171    -1.11150
C134        C  0.60007074  0.47732958  0.00762102     1.07030
O135        O  0.53922383  0.39201535  0.07254810    -0.77760
O136        O  0.56203942  0.40140158  0.97384726    -0.65340
Ni137      Ni  0.66994504  0.36459606  0.00202489     1.34870
C138        C  0.58296004  0.40567611  0.93971314     0.85760
O139        O  0.61022824  0.32816467  0.05160210    -0.78300
O140        O  0.65246899  0.32484144  0.00179869    -0.88570
C141        C  0.54562030  0.36999983  0.10230016     0.85340
O142        O  0.67561528  0.36165439  0.07644619    -0.66770
O143        O  0.57501988  0.46312407  0.00399410    -0.86060
C144        C  0.65984375  0.36651013  0.11809512     0.86170
C145        C  0.62970913  0.31293667  0.02615409     1.07740
H146        H  0.60085971  0.42024725  0.09747026     0.39540
O147        O  0.59679041  0.41241749  0.06245629    -1.08720
O148        O  0.60378739  0.42371784  0.95002342    -0.65370
Ni149      Ni  0.62747686  0.42273512  0.01273641     1.26350
O150        O  0.63194259  0.37227221  0.11714879    -0.65600
O151        O  0.62263571  0.46398652  0.02359977    -0.77890
C152        C  0.68314117  0.42735623  0.97839797     0.85550
O153        O  0.65758378  0.43203792  0.96344837    -0.65070
Ni154      Ni  0.55911595  0.42549402  0.03794780     1.27450
Ni155      Ni  0.60349050  0.37017234  0.05864085     1.26060
H156        H  0.62390051  0.37453122  0.97134718     0.40090
O157        O  0.65009190  0.54494217  0.77087159    -0.79860
O158        O  0.62266425  0.66665741  0.85426047    -0.64550
O159        O  0.63339288  0.60155137  0.75992575    -1.11150
C160        C  0.73072265  0.63249233  0.73868514     1.07030
O161        O  0.64612075  0.69500480  0.79168272    -0.77760
O162        O  0.65424975  0.66387368  0.70068594    -0.65340
Ni163      Ni  0.61343706  0.56501295  0.76551828     1.34870
C164        C  0.65855098  0.64063464  0.67333472     0.85760
O165        O  0.58338564  0.62540474  0.81291160    -0.78300
O166        O  0.57640474  0.58475076  0.76169016    -0.88570
C167        C  0.63258418  0.69195606  0.83708685     0.85340
O168        O  0.60879991  0.56371997  0.84044545    -0.66770
O169        O  0.71640442  0.65652303  0.72926195    -0.86060
C170        C  0.61801679  0.57947821  0.87850984     0.86170
C171        C  0.56656012  0.60612260  0.79023772     1.07740
H172        H  0.67812232  0.63861569  0.83506463     0.39540
O173        O  0.66848739  0.63910286  0.80103740    -1.08720
O174        O  0.67635831  0.62165330  0.69001437    -0.65370
Ni175      Ni  0.67619077  0.60469820  0.76095315     1.26350
O176        O  0.62963980  0.60580026  0.87174462    -0.65600
O177        O  0.71795001  0.61070395  0.76294730    -0.77890
C178        C  0.66901016  0.54662365  0.73256933     0.85550
O179        O  0.68284023  0.57028166  0.72164679    -0.65070
Ni180      Ni  0.67946036  0.67401875  0.76063159     1.27450
Ni181      Ni  0.62612429  0.63240959  0.80888256     1.26060
H182        H  0.62618413  0.60859525  0.72662815     0.40090
O183        O  0.62558917  0.43310881  0.62610237    -0.79860
O184        O  0.61607470  0.30563118  0.58376322    -0.64550
O185        O  0.61664318  0.37642336  0.66248866    -1.11150
C186        C  0.71439218  0.35557572  0.69394770     1.07030
O187        O  0.63199657  0.28599815  0.65948719    -0.77760
O188        O  0.63848343  0.32488137  0.74266950    -0.65340
Ni189      Ni  0.59241226  0.40795189  0.64724316     1.34870
C190        C  0.64018465  0.35115264  0.76124751     0.85760
O191        O  0.57158677  0.34406269  0.61279298    -0.78300
O192        O  0.55906080  0.38256363  0.66557356    -0.88570
C193        C  0.62493591  0.28335071  0.61043200     0.85340
O194        O  0.58656657  0.39824661  0.57492719    -0.66770
O195        O  0.70006606  0.33178965  0.70949326    -0.86060
C196        C  0.60695036  0.38946041  0.54370150     0.86170
C197        C  0.55216211  0.35941209  0.63875475     1.07740
H198        H  0.66781361  0.33813359  0.60294344     0.39540
O199        O  0.65600420  0.34008632  0.63559718    -1.08720
O200        O  0.65748767  0.36999460  0.73840743    -0.65370
Ni201      Ni  0.65936155  0.37857645  0.66285893     1.26350
O202        O  0.62262666  0.36685642  0.55613624    -0.65600
O203        O  0.70200009  0.37615615  0.66708408    -0.77890
C204        C  0.64922448  0.43823167  0.65149440     0.85550
O205        O  0.66076985  0.41888075  0.68113520    -0.65070
Ni206      Ni  0.66472234  0.30999407  0.68537849     1.27450
Ni207      Ni  0.61440915  0.34223631  0.62136933     1.26060
H208        H  0.60833291  0.37008197  0.69636574     0.40090
O209        O  0.64416879  0.19451241  0.12499480    -0.79860
O210        O  0.67985780  0.07092104  0.20268096    -0.64550
O211        O  0.66563686  0.13782031  0.11839073    -1.11150
C212        C  0.56268375  0.10573839  0.13984058     1.07030
O213        O  0.64628462  0.04384370  0.16230651    -0.77760
O214        O  0.60740742  0.06122394  0.09038615    -0.65340
Ni215      Ni  0.67689078  0.17350836  0.15508125     1.34870
C216        C  0.61567777  0.07684623  0.05022922     0.85760
O217        O  0.71529024  0.11017437  0.15454221    -0.78300
O218        O  0.71341848  0.15645249  0.18526016    -0.88570
C219        C  0.66519619  0.04728953  0.19837033     0.85340
O220        O  0.65142969  0.16476763  0.21819756    -0.66770
O221        O  0.57224363  0.08408771  0.16735034    -0.86060
C222        C  0.65594068  0.14203080  0.24673354     0.86170
C223        C  0.72770822  0.13214571  0.17743709     1.07740
H224        H  0.62300252  0.10895040  0.19941464     0.39540
O225        O  0.63017448  0.10115611  0.16592163    -1.08720
O226        O  0.62634017  0.10366385  0.05388820    -0.65370
Ni227      Ni  0.62312565  0.13127326  0.11530921     1.26350
O228        O  0.67347609  0.12267896  0.22928112    -0.65600
O229        O  0.58015751  0.12471037  0.11568171    -0.77890
C230        C  0.62963467  0.19055287  0.08235714     0.85550
O231        O  0.61990189  0.16488637  0.06806482    -0.65070
Ni232      Ni  0.60972794  0.06454271  0.16518810     1.27450
Ni233      Ni  0.67326291  0.10418795  0.16039182     1.26060
H234        H  0.67527785  0.13662547  0.08345158     0.40090
O235        O  0.63866141  0.78889800  0.27124400    -0.79860
O236        O  0.66311116  0.92435373  0.25849106    -0.64550
O237        O  0.65889807  0.84455062  0.29986533    -1.11150
C238        C  0.55472527  0.85969570  0.28859110     1.07030
O239        O  0.62377725  0.93620154  0.30989085    -0.77760
O240        O  0.58337112  0.89817804  0.35569127    -0.65340
Ni241      Ni  0.67193289  0.81563688  0.25053250     1.34870
C242        C  0.60257401  0.89019888  0.38798686     0.85760
O243        O  0.70503654  0.88315692  0.27521127    -0.78300
O244        O  0.70809169  0.83939895  0.23172064    -0.88570
C245        C  0.64915123  0.94245099  0.28833656     0.85340
O246        O  0.64897867  0.83077922  0.19121893    -0.66770
O247        O  0.56178794  0.88353346  0.26267214    -0.86060
C248        C  0.65097620  0.85738899  0.17358803     0.86170
C249        C  0.72010726  0.86367039  0.24924249     1.07740
H250        H  0.61411875  0.87453242  0.23469770     0.39540
O251        O  0.61985682  0.88006638  0.26990119    -1.08720
O252        O  0.62001406  0.86861282  0.37613220    -0.65370
Ni253      Ni  0.61675920  0.84501655  0.30936453     1.26350
O254        O  0.66597350  0.87639385  0.19894000    -0.65600
O255        O  0.57380433  0.84479482  0.31414675    -0.77890
C256        C  0.62449683  0.78572593  0.31644160     0.85550
O257        O  0.61702956  0.80794437  0.34497940    -0.65070
Ni258      Ni  0.59303017  0.90999886  0.28471123     1.27450
Ni259      Ni  0.66229493  0.88371640  0.27463185     1.26060
H260        H  0.66855067  0.84242127  0.33366223     0.40090
O261        O  0.93974454  0.09100289  0.39202773    -0.79860
O262        O  0.81807577  0.04141266  0.46798415    -0.64550
O263        O  0.88405219  0.06491730  0.38421100    -1.11150
C264        C  0.84547516  0.16216727  0.41540088     1.07030
O265        O  0.78748066  0.07079056  0.42620840    -0.77760
O266        O  0.80450170  0.11514276  0.35856827    -0.65340
Ni267      Ni  0.92011907  0.05491832  0.41840447     1.34870
C268        C  0.82201105  0.11141454  0.31880108     0.85760
O269        O  0.85833502  0.01192175  0.41512108    -0.78300
O270        O  0.90466824  0.01515367  0.44361091    -0.88570
C271        C  0.79283304  0.04728215  0.45269903     0.85340
O272        O  0.91001675  0.07656386  0.48390936    -0.66770
O273        O  0.82284522  0.14952478  0.43886815    -0.86060
C274        C  0.88731425  0.06945558  0.51256944     0.86170
C275        C  0.88104535  0.99963560  0.43333281     1.07740
H276        H  0.85096397  0.10072567  0.46989370     0.39540
O277        O  0.84466148  0.09425196  0.43543473    -1.08720
O278        O  0.84939292  0.10395499  0.32321772    -0.65370
Ni279      Ni  0.87503734  0.10641103  0.38613890     1.26350
O280        O  0.86910991  0.05064614  0.49481163    -0.65600
O281        O  0.86622778  0.14786938  0.39163310    -0.77890
C282        C  0.93466179  0.10978374  0.35494199     0.85550
O283        O  0.90853680  0.11600157  0.34044417    -0.65070
Ni284      Ni  0.80629501  0.10971855  0.43314882     1.27450
Ni285      Ni  0.85078821  0.05266404  0.42639078     1.26060
H286        H  0.88328745  0.05696320  0.34843294     0.40090
O287        O  0.53955099  0.09034934  0.53309838    -0.79860
O288        O  0.66477088  0.04587827  0.48145901    -0.64550
O289        O  0.59283207  0.06320022  0.54895991    -1.11150
C290        C  0.63418093  0.16201030  0.54514168     1.07030
O291        O  0.69134776  0.07348636  0.53556233    -0.77760
O292        O  0.66994251  0.11455831  0.60182697    -0.65340
Ni293      Ni  0.55958925  0.05561904  0.50481011     1.34870
C294        C  0.65121055  0.10476906  0.63642690     0.85760
O295        O  0.61998986  0.01302338  0.51432311    -0.78300
O296        O  0.57583603  0.01748744  0.47700866    -0.88570
C297        C  0.68761598  0.05019695  0.50747216     0.85340
O298        O  0.57467730  0.08069961  0.44551285    -0.66770
O299        O  0.65751959  0.15144295  0.52221100    -0.86060
C300        C  0.59980568  0.07693723  0.42254462     0.86170
C301        C  0.59825334  0.00168159  0.49006606     1.07740
H302        H  0.63121907  0.10538426  0.48135817     0.39540
O303        O  0.63578724  0.09613543  0.51460714    -1.08720
O304        O  0.62452825  0.09628574  0.62519521    -0.65370
Ni305      Ni  0.60279600  0.10432988  0.55899439     1.26350
O306        O  0.61620217  0.05699023  0.44054255    -0.65600
O307        O  0.61274626  0.14593978  0.56485300    -0.77890
C308        C  0.54196791  0.10553420  0.57613900     0.85550
O309        O  0.56672625  0.11008413  0.59874664    -0.65070
Ni310      Ni  0.67359287  0.11214341  0.52721369     1.27450
Ni311      Ni  0.62875433  0.05422028  0.51360206     1.26060
H312        H  0.59070419  0.05268791  0.58268703     0.40090
O313        O  0.94063435  0.89427241  0.03536818    -0.79860
O314        O  0.80885622  0.91888479  0.01010174    -0.64550
O315        O  0.88452435  0.91145294  0.06114858    -1.11150
C316        C  0.86269517  0.80909420  0.07317509     1.07030
O317        O  0.79360215  0.87268797  0.99094935    -0.77760
O318        O  0.80978628  0.86915295  0.09477602    -0.65340
Ni319      Ni  0.91572758  0.92726885  0.01691750     1.34870
C320        C  0.82696591  0.87276948  0.13385313     0.85760
O321        O  0.84839368  0.95719342  0.04128758    -0.78300
O322        O  0.89313135  0.96327314  0.00016957    -0.88570
C323        C  0.79089685  0.90063639  0.99085327     0.85340
O324        O  0.90402618  0.90547061  0.95325502    -0.66770
O325        O  0.83601622  0.81732542  0.07339248    -0.86060
C326        C  0.87881099  0.90814897  0.93241041     0.86170
C327        C  0.86819468  0.97374617  0.01782434     1.07740
H328        H  0.85736773  0.86701255  0.98510922     0.39540
O329        O  0.85047467  0.87205668  0.02055016    -1.08720
O330        O  0.85588524  0.87066930  0.12998864    -0.65370
Ni331      Ni  0.88347005  0.86941237  0.06525587     1.26350
O332        O  0.85829779  0.92108989  0.95807771    -0.65600
O333        O  0.88441082  0.82697174  0.06580629    -0.77890
C334        C  0.94219695  0.88107767  0.08070582     0.85550
O335        O  0.91898882  0.87037803  0.10521130    -0.65070
Ni336      Ni  0.81692107  0.84706948  0.03265210     1.27450
Ni337      Ni  0.84732515  0.91499038  0.03237866     1.26060
H338        H  0.88491454  0.92017756  0.09637992     0.40090
O339        O  0.53508033  0.88669081  0.88300010    -0.79860
O340        O  0.66146094  0.93522667  0.92707880    -0.64550
O341        O  0.59027883  0.91188837  0.86472762    -1.11150
C342        C  0.62938228  0.81405944  0.89390103     1.07030
O343        O  0.68441784  0.90366603  0.87428750    -0.77760
O344        O  0.66611513  0.85490102  0.82445799    -0.65340
Ni345      Ni  0.55585122  0.92233446  0.90630201     1.34870
C346        C  0.64996129  0.86403798  0.78775449     0.85760
O347        O  0.61720630  0.96529924  0.89012136    -0.78300
O348        O  0.57279030  0.96111970  0.93085902    -0.88570
C349        C  0.68498668  0.92488610  0.90737488     0.85340
O350        O  0.56804900  0.90040618  0.96855080    -0.66770
O351        O  0.65157540  0.82723485  0.91537490    -0.86060
C352        C  0.59165495  0.90703341  0.99260455     0.86170
C353        C  0.59618035  0.97679059  0.91730652     1.07740
H354        H  0.62603239  0.87603881  0.94203989     0.39540
O355        O  0.63119978  0.88231134  0.90618159    -1.08720
O356        O  0.62363090  0.87413326  0.79702994    -0.65370
Ni357      Ni  0.59956646  0.87007325  0.86473529     1.26350
O358        O  0.61068083  0.92479887  0.97112202    -0.65600
O359        O  0.60923149  0.82813300  0.86919011    -0.77890
C360        C  0.53904501  0.86640562  0.84775582     0.85550
O361        O  0.56450050  0.86010856  0.82733927    -0.65070
Ni362      Ni  0.66834657  0.86566500  0.89649766     1.27450
Ni363      Ni  0.62541852  0.92424821  0.89767930     1.26060
H364        H  0.58952836  0.91974422  0.82877130     0.40090
O365        O  0.83378263  0.18515396  0.79522490    -0.79860
O366        O  0.79981015  0.05284648  0.77195907    -0.64550
O367        O  0.80921756  0.13060955  0.82063482    -1.11150
C368        C  0.91249562  0.10611700  0.81490063     1.07030
O369        O  0.83375947  0.03800642  0.82745358    -0.77760
O370        O  0.87541900  0.06837995  0.88048338    -0.65340
Ni371      Ni  0.80030315  0.16104320  0.77128630     1.34870
C372        C  0.85712403  0.08035019  0.91233005     0.85760
O373        O  0.76148535  0.09610960  0.79166605    -0.78300
O374        O  0.76388902  0.13993536  0.74814822    -0.88570
C375        C  0.81531288  0.03261088  0.79135752     0.85340
O376        O  0.82574750  0.14595693  0.71309565    -0.66770
O377        O  0.90472436  0.08230350  0.79072043    -0.86060
C378        C  0.82329672  0.11984693  0.69416772     0.86170
C379        C  0.74932431  0.11631512  0.76408799     1.07740
H380        H  0.85494657  0.09768196  0.75721161     0.39540
O381        O  0.84679329  0.09241407  0.79185777    -1.08720
O382        O  0.84283638  0.10368374  0.89894794    -0.65370
Ni383      Ni  0.85091385  0.12676346  0.83215866     1.26350
O384        O  0.80562547  0.10139722  0.71745292    -0.65600
O385        O  0.89374714  0.12306792  0.83905635    -0.77890
C386        C  0.84545081  0.18679271  0.84143734     0.85550
O387        O  0.85165131  0.16367982  0.86845840    -0.65070
Ni388      Ni  0.86934061  0.05954068  0.80804729     1.27450
Ni389      Ni  0.80372900  0.09231282  0.79328610     1.26060
H390        H  0.79813745  0.13293520  0.85399235     0.40090
O391        O  0.84190258  0.78493757  0.65585991    -0.79860
O392        O  0.80640217  0.91648864  0.66773735    -0.64550
O393        O  0.81958116  0.83866036  0.62413651    -1.11150
C394        C  0.92193295  0.86642832  0.64686639     1.07030
O395        O  0.84550588  0.93268069  0.61966689    -0.77760
O396        O  0.89114596  0.90256541  0.57483169    -0.65340
Ni397      Ni  0.80670385  0.80842040  0.67299927     1.34870
C398        C  0.87501058  0.89042522  0.54062039     0.85760
O399        O  0.76964377  0.87151896  0.64307646    -0.78300
O400        O  0.76855153  0.82841983  0.68898416    -0.88570
C401        C  0.82354460  0.93731445  0.65124967     0.85340
O402        O  0.82727007  0.82563712  0.73391852    -0.66770
O403        O  0.91274712  0.89035601  0.66893068    -0.86060
C404        C  0.82263224  0.85179845  0.75105439     0.86170
C405        C  0.75530566  0.85128759  0.66995907     1.07740
H406        H  0.85956806  0.87417615  0.69417012     0.39540
O407        O  0.85448837  0.87874750  0.65818472    -1.08720
O408        O  0.85956225  0.86663410  0.55195526    -0.65370
Ni409      Ni  0.86185193  0.84421993  0.62032228     1.26350
O410        O  0.80656511  0.86861372  0.72410480    -0.65600
O411        O  0.90464607  0.84917493  0.62075801    -0.77890
C412        C  0.85967110  0.78406056  0.61461483     0.85550
O413        O  0.86628323  0.80714038  0.58658258    -0.65070
Ni414      Ni  0.87901912  0.91203987  0.64535881     1.27450
Ni415      Ni  0.81184292  0.87705583  0.64865454     1.26060
H416        H  0.81153501  0.83544881  0.58916730     0.40090
O417        O  0.34648470  0.04496175  0.64845410    -0.79860
O418        O  0.36156980  0.16782205  0.57198908    -0.64550
O419        O  0.35514933  0.10238088  0.66613179    -1.11150
C420        C  0.25513516  0.12272826  0.67551854     1.07030
O421        O  0.33939084  0.19229970  0.63952876    -0.77760
O422        O  0.32743756  0.15871828  0.72830448    -0.65340
Ni423      Ni  0.38009364  0.06991671  0.66108565     1.34870
C424        C  0.32330227  0.13443945  0.75372191     0.85760
O425        O  0.40319890  0.13155478  0.61316653    -0.78300
O426        O  0.41399612  0.09543906  0.67142935    -0.88570
C427        C  0.35347253  0.19200253  0.59425071     0.85340
O428        O  0.38840425  0.07178483  0.58674864    -0.66770
O429        O  0.26767790  0.14784768  0.68765856    -0.86060
C430        C  0.37231639  0.08154021  0.55033848     0.86170
C431        C  0.42186399  0.11707894  0.64049779     1.07740
H432        H  0.30861568  0.13517027  0.58952911     0.39540
O433        O  0.31786091  0.13576878  0.62392680    -1.08720
O434        O  0.30801165  0.11404063  0.73296336    -0.65370
Ni435      Ni  0.31225980  0.09968917  0.66087564     1.26350
O436        O  0.35701380  0.10535590  0.55642027    -0.65600
O437        O  0.27004098  0.10113466  0.65634104    -0.77890
C438        C  0.32596202  0.04224954  0.68389158     0.85550
O439        O  0.30845459  0.06287243  0.69473750    -0.65070
Ni440      Ni  0.30512200  0.16875644  0.66461571     1.27450
Ni441      Ni  0.36017359  0.13350527  0.61694931     1.26060
H442        H  0.36068717  0.11061462  0.69974939     0.40090
O443        O  0.35167014  0.92830082  0.82125276    -0.79860
O444        O  0.35265816  0.80481279  0.87815344    -0.64550
O445        O  0.35602995  0.87166753  0.78951366    -1.11150
C446        C  0.25585119  0.85816889  0.76659449     1.07030
O447        O  0.32752867  0.78109817  0.81401540    -0.77760
O448        O  0.32523285  0.81607534  0.72453495    -0.65340
Ni449      Ni  0.38307916  0.90243433  0.80075570     1.34870
C450        C  0.32606068  0.84066864  0.69928071     0.85760
O451        O  0.39928816  0.83859982  0.83852555    -0.78300
O452        O  0.41416585  0.87573270  0.78258759    -0.88570
C453        C  0.34354561  0.78117859  0.85569657     0.85340
O454        O  0.39016034  0.89437414  0.87349765    -0.66770
O455        O  0.26588004  0.83195324  0.75734880    -0.86060
C456        C  0.36964489  0.88766539  0.90680199     0.86170
C457        C  0.41946426  0.85229038  0.80956730     1.07740
H458        H  0.30305059  0.84063220  0.86098762     0.39540
O459        O  0.31355390  0.83959696  0.82680701    -1.08720
O460        O  0.31383401  0.86343419  0.71892317    -0.65370
Ni461      Ni  0.31389497  0.87661171  0.79191949     1.26350
O462        O  0.35174773  0.86582326  0.89770598    -0.65600
O463        O  0.27124109  0.87796990  0.79066866    -0.77890
C464        C  0.33131500  0.93487648  0.78950373     0.85550
O465        O  0.31680902  0.91523161  0.76448902    -0.65070
Ni466      Ni  0.29842301  0.80793966  0.78555443     1.27450
Ni467      Ni  0.35584648  0.83925557  0.83525506     1.26060
H468        H  0.36256698  0.86441023  0.75525099     0.40090
O469        O  0.18993798  0.89982185  0.51772658    -0.79860
O470        O  0.06898802  0.86527117  0.61397780    -0.64550
O471        O  0.13217331  0.87789881  0.51439111    -1.11150
C472        C  0.09413913  0.97076515  0.48886213     1.07030
O473        O  0.04051045  0.87873995  0.54584041    -0.77760
O474        O  0.07067958  0.88986727  0.45195015    -0.65340
Ni475      Ni  0.16954890  0.86110532  0.51683693     1.34870
C476        C  0.09455952  0.89555259  0.42525964     0.85760
O477        O  0.11225169  0.82858299  0.57509410    -0.78300
O478        O  0.15079305  0.82182940  0.51734634    -0.88570
C479        C  0.04351420  0.86824978  0.59320148     0.85340
O480        O  0.17166108  0.85896013  0.59194142    -0.66770
O481        O  0.07133643  0.95352514  0.48047988    -0.86060
C482        C  0.15766835  0.87194981  0.62944494     0.86170
C483        C  0.12976979  0.81163372  0.54848611     1.07740
H484        H  0.09122015  0.92191085  0.58587080     0.39540
O485        O  0.09217037  0.91042267  0.55331710    -1.08720
O486        O  0.11079674  0.91663421  0.44099592    -0.65370
Ni487      Ni  0.12597403  0.92011040  0.51211717     1.26350
O488        O  0.13040857  0.88049638  0.62512813    -0.65600
O489        O  0.11690380  0.96101938  0.51158962    -0.77890
C490        C  0.18481808  0.92398561  0.49253639     0.85550
O491        O  0.16018711  0.92973843  0.47433529    -0.65070
Ni492      Ni  0.05734594  0.91465930  0.51251938     1.27450
Ni493      Ni  0.10270282  0.87001524  0.56666781     1.26060
H494        H  0.12403553  0.86779619  0.48444739     0.40090
O495        O  0.28716746  0.89121813  0.41473006    -0.79860
O496        O  0.41137419  0.86378751  0.33515715    -0.64550
O497        O  0.34529867  0.87441276  0.42686576    -1.11150
C498        C  0.37904029  0.97099768  0.44387084     1.07030
O499        O  0.43908343  0.88312790  0.40025814    -0.77760
O500        O  0.40561841  0.89354056  0.49061495    -0.65340
Ni501      Ni  0.30868989  0.85451682  0.42125944     1.34870
C502        C  0.38093941  0.89758056  0.51515350     0.85760
O503        O  0.36957181  0.82584227  0.37458775    -0.78300
O504        O  0.32839459  0.81667228  0.42541445    -0.88570
C505        C  0.43632666  0.86854474  0.35654724     0.85340
O506        O  0.30943654  0.85112835  0.34643895    -0.66770
O507        O  0.40230127  0.95602950  0.45558092    -0.86060
C508        C  0.32604005  0.86133955  0.30876792     0.86170
C509        C  0.35093309  0.80792670  0.39759208     1.07740
H510        H  0.38611407  0.91949273  0.35299161     0.39540
O511        O  0.38510621  0.90921487  0.38704039    -1.08720
O512        O  0.36396605  0.91675096  0.49671282    -0.65370
Ni513      Ni  0.34981665  0.91695438  0.42479124     1.26350
O514        O  0.35202176  0.87310435  0.31600668    -0.65600
O515        O  0.35694739  0.95863809  0.42174781    -0.77890
C516        C  0.29042621  0.91569984  0.43969697     0.85550
O517        O  0.31429606  0.92403150  0.45920927    -0.65070
Ni518      Ni  0.41899532  0.91792167  0.42870997     1.27450
Ni519      Ni  0.37692010  0.86770376  0.37898571     1.26060
H520        H  0.35227058  0.86592464  0.45919629     0.40090
O521        O  0.12145163  0.04316193  0.26923321    -0.79860
O522        O  0.11674295  0.16727374  0.35522067    -0.64550
O523        O  0.11797757  0.10415870  0.25669523    -1.11150
C524        C  0.21997328  0.11816477  0.25151256     1.07030
O525        O  0.14415679  0.19281262  0.29336152    -0.77760
O526        O  0.15340629  0.16242989  0.20139277    -0.65340
Ni527      Ni  0.09076484  0.07206121  0.25962508     1.34870
C528        C  0.15469186  0.13900861  0.17351540     0.85760
O529        O  0.07267107  0.13418036  0.31162579    -0.78300
O530        O  0.05898576  0.09961868  0.25219230    -0.88570
C531        C  0.12778120  0.19164426  0.33609643     0.85340
O532        O  0.08309004  0.07175844  0.33445157    -0.66770
O533        O  0.21067039  0.14469012  0.24245799    -0.86060
C534        C  0.09956747  0.08054145  0.37154263     0.86170
C535        C  0.05286460  0.12094305  0.28410732     1.07740
H536        H  0.16681517  0.13105685  0.33699896     0.39540
O537        O  0.15812972  0.13400484  0.30252157    -1.08720
O538        O  0.16649688  0.11624784  0.19207432    -0.65370
Ni539      Ni  0.15988416  0.09929299  0.26163087     1.26350
O540        O  0.11609966  0.10427737  0.36691238    -0.65600
O541        O  0.20217358  0.09713225  0.26694817    -0.77890
C542        C  0.14698103  0.04205773  0.24594608     0.85550
O543        O  0.15908793  0.06432124  0.22376448    -0.65070
Ni544      Ni  0.17559922  0.16749557  0.26689010     1.27450
Ni545      Ni  0.11563827  0.13407769  0.30821871     1.26060
H546        H  0.11362168  0.11352332  0.22339547     0.40090
O547        O  0.15291718  0.93613385  0.15787314    -0.79860
O548        O  0.12081562  0.81710109  0.06451730    -0.64550
O549        O  0.13134225  0.87900889  0.16552605    -1.11150
C550        C  0.22692113  0.84658052  0.18011752     1.07030
O551        O  0.14003114  0.78726040  0.12576793    -0.77760
O552        O  0.14838910  0.81392550  0.21839645    -0.65340
Ni553      Ni  0.11468470  0.91656066  0.16071805     1.34870
C554        C  0.15259973  0.83636122  0.24756031     0.85760
O555        O  0.08194178  0.85763347  0.10968949    -0.78300
O556        O  0.07599299  0.89824979  0.16159637    -0.88570
C557        C  0.12906665  0.79144320  0.07994424     0.85340
O558        O  0.11376925  0.91988610  0.08578045    -0.66770
O559        O  0.21175417  0.82208589  0.18745637    -0.86060
C560        C  0.12397197  0.90467334  0.04735503     0.86170
C561        C  0.06561424  0.87699993  0.13341494     1.07740
H562        H  0.17667826  0.84394869  0.08651197     0.39540
O563        O  0.16589706  0.84232701  0.12042275    -1.08720
O564        O  0.17150780  0.85582416  0.23242559    -0.65370
Ni565      Ni  0.17373724  0.87520833  0.16391903     1.26350
O566        O  0.13235472  0.87759228  0.05270116    -0.65600
O567        O  0.21515493  0.86923612  0.15987419    -0.77890
C568        C  0.17203441  0.93291191  0.19359454     0.85550
O569        O  0.18076639  0.90795422  0.20710291    -0.65070
Ni570      Ni  0.17431289  0.80604326  0.15645973     1.27450
Ni571      Ni  0.12427206  0.84980128  0.11321899     1.26060
H572        H  0.12262732  0.87135122  0.19841750     0.40090
O573        O  0.18753350  0.10177777  0.85561235    -0.79860
O574        O  0.05860143  0.10734892  0.82289243    -0.64550
O575        O  0.13100652  0.10754711  0.89375209    -1.11150
C576        C  0.11166639  0.00788487  0.92399663     1.07030
O577        O  0.03894535  0.08729510  0.89863158    -0.77760
O578        O  0.07974673  0.08093694  0.97674966    -0.65340
Ni579      Ni  0.16224895  0.13386306  0.87568887     1.34870
C580        C  0.10617360  0.08023274  0.99333025     0.85760
O581        O  0.09751836  0.15193656  0.84685736    -0.78300
O582        O  0.13694608  0.16616158  0.89437773    -0.88570
C583        C  0.03622875  0.10078997  0.85365229     0.85340
O584        O  0.15165721  0.13942704  0.80383494    -0.66770
O585        O  0.08761691  0.02028431  0.94143492    -0.86060
C586        C  0.14251762  0.11877122  0.77435538     0.86170
C587        C  0.11297994  0.17194271  0.87050009     1.07740
H588        H  0.09193571  0.05618923  0.83576218     0.39540
O589        O  0.09418787  0.06711521  0.86863749    -1.08720
O590        O  0.12495091  0.06438188  0.96876721    -0.65370
Ni591      Ni  0.13311910  0.06478540  0.89259515     1.26350
O592        O  0.11954631  0.10273191  0.78855332    -0.65600
O593        O  0.13134452  0.02211372  0.89534353    -0.77890
C594        C  0.19307266  0.08086715  0.88787982     0.85550
O595        O  0.17302658  0.06453166  0.90994388    -0.65070
Ni596      Ni  0.06475906  0.05529976  0.92030214     1.27450
Ni597      Ni  0.09604890  0.10901403  0.85580913     1.26060
H598        H  0.12555851  0.11465247  0.92864347     0.40090
O599        O  0.29087982  0.08414385  0.06187244    -0.79860
O600        O  0.41559826  0.10385787  0.10998419    -0.64550
O601        O  0.34599617  0.09763973  0.03061490    -1.11150
C602        C  0.37247255  0.00036490  0.00511884     1.07030
O603        O  0.43888393  0.08687548  0.03609273    -0.77760
O604        O  0.40094031  0.07713960  0.95266454    -0.65340
Ni605      Ni  0.31244910  0.12001701  0.04584807     1.34870
C606        C  0.37528072  0.07346777  0.93323384     0.85760
O607        O  0.37478943  0.14463358  0.08141772    -0.78300
O608        O  0.33531224  0.15571281  0.03213922    -0.88570
C609        C  0.43945085  0.09816503  0.08318805     0.85340
O610        O  0.31878407  0.12576066  0.11912627    -0.66770
O611        O  0.39587293  0.01524579  0.98839134    -0.86060
C612        C  0.33020820  0.10770905  0.15081178     0.86170
C613        C  0.35823055  0.16337817  0.05832774     1.07740
H614        H  0.38600517  0.05000751  0.09325667     0.39540
O615        O  0.38408565  0.06088629  0.06015267    -1.08720
O616        O  0.35734817  0.05520050  0.95623504    -0.65370
Ni617      Ni  0.34640642  0.05451795  0.03173239     1.26350
O618        O  0.35440248  0.09405276  0.13826138    -0.65600
O619        O  0.35108669  0.01257649  0.03092352    -0.77890
C620        C  0.28688406  0.06610129  0.02403354     0.85550
O621        O  0.30749375  0.04941683  0.00819427    -0.65070
Ni622      Ni  0.41575714  0.05259100  0.01118069     1.27450
Ni623      Ni  0.37929923  0.10232039  0.07266958     1.26060
H624        H  0.35206961  0.10558051  0.99631675     0.39130
O625        O  0.03757050  0.39582910  0.38460759    -0.79860
O626        O  0.16638497  0.43298629  0.43633536    -0.64550
O627        O  0.09545985  0.41522459  0.36834345    -1.11150
C628        C  0.12350547  0.31543260  0.37733060     1.07030
O629        O  0.18208720  0.38841121  0.46087162    -0.77760
O630        O  0.17201699  0.38260136  0.35207085    -0.65340
Ni631      Ni  0.06117024  0.43043963  0.40421778     1.34870
C632        C  0.15689413  0.37953000  0.31001917     0.85760
O633        O  0.12767322  0.46533614  0.38879567    -0.78300
O634        O  0.08148214  0.46830924  0.42306225    -0.88570
C635        C  0.18168711  0.41651207  0.46473775     0.85340
O636        O  0.06916329  0.41074765  0.47163672    -0.66770
O637        O  0.14905104  0.32772254  0.37321565    -0.86060
C638        C  0.09255762  0.41626267  0.49719292     0.86170
C639        C  0.10676525  0.48059987  0.40954141     1.07740
H640        H  0.12146263  0.37669047  0.45639639     0.39540
O641        O  0.12908905  0.38133184  0.42105396    -1.08720
O642        O  0.12842678  0.37327804  0.31152129    -0.65370
Ni643      Ni  0.09860964  0.37322061  0.37296960     1.26350
O644        O  0.11369040  0.43087481  0.47473868    -0.65600
O645        O  0.10031689  0.33085537  0.38186185    -0.77890
C646        C  0.03997368  0.37645185  0.34742000     0.85550
O647        O  0.06511065  0.36789314  0.32858974    -0.65070
Ni648      Ni  0.16428428  0.36002153  0.41491559     1.27450
Ni649      Ni  0.13041976  0.42388776  0.40411874     1.26060
H650        H  0.09690246  0.42207915  0.33165940     0.40090
O651        O  0.43383855  0.39358514  0.54941390    -0.79860
O652        O  0.30331821  0.43021558  0.52631435    -0.64550
O653        O  0.37953685  0.41736093  0.57522743    -1.11150
C654        C  0.35015280  0.31552861  0.55735378     1.07030
O655        O  0.28356893  0.39423798  0.57795267    -0.77760
O656        O  0.31273451  0.35041098  0.62731459    -0.65340
Ni657      Ni  0.41186643  0.42869761  0.52924190     1.34870
C658        C  0.32420928  0.36820893  0.65992983     0.85760
O659        O  0.34812333  0.46661333  0.55177435    -0.78300
O660        O  0.39293169  0.46641363  0.50990275    -0.88570
C661        C  0.28188867  0.41929396  0.55412643     0.85340
O662        O  0.39725028  0.40692511  0.46800233    -0.66770
O663        O  0.32678015  0.32470720  0.53483565    -0.86060
C664        C  0.37188663  0.41069490  0.44827654     0.86170
C665        C  0.36948102  0.48015463  0.52654998     1.07740
H666        H  0.34517514  0.37590946  0.50557295     0.39540
O667        O  0.33978119  0.38226422  0.54103786    -1.08720
O668        O  0.34897971  0.38182361  0.64834522    -0.65370
Ni669      Ni  0.37297546  0.37554942  0.58182620     1.26350
O670        O  0.35343291  0.42713746  0.47241457    -0.65600
O671        O  0.36680700  0.33287329  0.58454159    -0.77890
C672        C  0.43284494  0.37688819  0.59131933     0.85550
O673        O  0.40885479  0.37152521  0.61832330    -0.65070
Ni674      Ni  0.30530536  0.35972875  0.55520660     1.27450
Ni675      Ni  0.34220814  0.42462938  0.54737475     1.26060
H676        H  0.38140343  0.42654821  0.60986380     0.40090
O677        O  0.33701568  0.68569300  0.28936772    -0.79860
O678        O  0.29093209  0.55794399  0.25656044    -0.64550
O679        O  0.30943753  0.63241898  0.31558872    -1.11150
C680        C  0.41121367  0.60029019  0.30389709     1.07030
O681        O  0.32622377  0.53800664  0.30150957    -0.77760
O682        O  0.36683985  0.56064627  0.36467721    -0.65340
Ni683      Ni  0.30097470  0.66470327  0.26919356     1.34870
C684        C  0.35670176  0.57826336  0.39968912     0.85760
O685        O  0.25812369  0.60252011  0.29108080    -0.78300
O686        O  0.26209367  0.64696023  0.24999122    -0.88570
C687        C  0.30857933  0.53720535  0.26317121     0.85340
O688        O  0.32323492  0.64903376  0.20716630    -0.66770
O689        O  0.40175911  0.57682792  0.28061706    -0.86060
C690        C  0.31711711  0.62387571  0.18695706     0.86170
C691        C  0.24646503  0.62408703  0.26635197     1.07740
H692        H  0.35036697  0.59779522  0.24350129     0.39540
O693        O  0.34323641  0.59246125  0.27886211    -1.08720
O694        O  0.34564081  0.60363003  0.38839187    -0.65370
Ni695      Ni  0.35125147  0.62600750  0.32103396     1.26350
O696        O  0.29857723  0.60719286  0.21165391    -0.65600
O697        O  0.39374717  0.61976213  0.32398904    -0.77890
C698        C  0.34908757  0.68607652  0.33510017     0.85550
O699        O  0.35550482  0.66216488  0.35936756    -0.65070
Ni700      Ni  0.36364184  0.55715136  0.29023565     1.27450
Ni701      Ni  0.29975654  0.59542541  0.28555218     1.26060
H702        H  0.29983867  0.63469737  0.35036382     0.40090
O703        O  0.33963589  0.28747679  0.15879885    -0.79860
O704        O  0.32031818  0.42285483  0.17537323    -0.64550
O705        O  0.32231345  0.34365241  0.13179229    -1.11150
C706        C  0.42672386  0.36032588  0.14742707     1.07030
O707        O  0.35852718  0.43544641  0.12052994    -0.77760
O708        O  0.39858556  0.39854682  0.07506908    -0.65340
Ni709      Ni  0.30733239  0.31383619  0.17899889     1.34870
C710        C  0.37947819  0.38907725  0.04319711     0.85760
O711        O  0.27712937  0.38182963  0.15782343    -0.78300
O712        O  0.27222734  0.33727378  0.19887815    -0.88570
C713        C  0.33475072  0.44173051  0.14643303     0.85340
O714        O  0.32973174  0.32755698  0.23971204    -0.66770
O715        O  0.41995139  0.38499893  0.16945815    -0.86060
C716        C  0.32774158  0.35345508  0.25952598     0.86170
C717        C  0.26141657  0.36224262  0.18401440     1.07740
H718        H  0.36709822  0.37425565  0.19868418     0.39540
O719        O  0.36207042  0.37945235  0.16278163    -1.08720
O720        O  0.36198453  0.36724680  0.05652840    -0.65370
Ni721      Ni  0.36465922  0.34448139  0.12380433     1.26350
O722        O  0.31679141  0.37456648  0.23342430    -0.65600
O723        O  0.40798341  0.34491271  0.12066881    -0.77890
C724        C  0.35463785  0.28525424  0.11458386     0.85550
O725        O  0.36382296  0.30785176  0.08774014    -0.65070
Ni726      Ni  0.38909611  0.41022891  0.14607951     1.27450
Ni727      Ni  0.31989999  0.38253792  0.15787458     1.26060
H728        H  0.31303680  0.34206757  0.09751464     0.40090
O729        O  0.04224230  0.60098416  0.02917523    -0.79860
O730        O  0.16657055  0.54909287  0.01304728    -0.64550
O731        O  0.09122819  0.57157835  0.05933506    -1.11150
C732        C  0.13224141  0.66996686  0.03502682     1.07030
O733        O  0.18704673  0.58389864  0.06278752    -0.77760
O734        O  0.16366587  0.63198822  0.10953713    -0.65340
Ni735      Ni  0.06028321  0.56314427  0.01148222     1.34870
C736        C  0.14669421  0.61920388  0.14382953     0.85760
O737        O  0.11775543  0.51840241  0.03978527    -0.78300
O738        O  0.07552802  0.52302660  0.99497401    -0.88570
C739        C  0.18905716  0.56230565  0.03067212     0.85340
O740        O  0.08023586  0.58229706  0.94949356    -0.66770
O741        O  0.15571982  0.65787504  0.01557802    -0.86060
C742        C  0.10555202  0.57461511  0.93098243     0.86170
C743        C  0.09661467  0.50702121  0.01317481     1.07740
H744        H  0.13255515  0.60792030  0.98811448     0.39540
O745        O  0.13564916  0.60186833  0.02436252    -1.08720
O746        O  0.12160822  0.60734020  0.13137814    -0.65370
Ni747      Ni  0.10168962  0.61304686  0.06283719     1.26350
O748        O  0.12082766  0.55714410  0.95824454    -0.65600
O749        O  0.11193998  0.65515447  0.06138900    -0.77890
C750        C  0.04151706  0.61329366  0.07529007     0.85550
O751        O  0.06519102  0.62060698  0.09899268    -0.65070
Ni752      Ni  0.17184291  0.62077924  0.03814725     1.27450
Ni753      Ni  0.12839629  0.55954956  0.03372680     1.26060
H754        H  0.08669435  0.56330215  0.09443226     0.40090
O755        O  0.44314439  0.58853997  0.90761428    -0.79860
O756        O  0.31548257  0.54011626  0.93140589    -0.64550
O757        O  0.39197084  0.56020234  0.87948117    -1.11150
C758        C  0.35648732  0.65921174  0.89929263     1.07030
O759        O  0.29872403  0.57368884  0.87717136    -0.77760
O760        O  0.32234461  0.62181757  0.82944140    -0.65340
Ni761      Ni  0.42289304  0.55141814  0.92684767     1.34870
C762        C  0.33907143  0.61035574  0.79431212     0.85760
O763        O  0.36204935  0.50802922  0.90312241    -0.78300
O764        O  0.40530201  0.51191087  0.94546823    -0.88570
C765        C  0.29399627  0.55307876  0.91108191     0.85340
O766        O  0.40501948  0.57185712  0.98831681    -0.66770
O767        O  0.33282885  0.64778413  0.92140403    -0.86060
C768        C  0.37942868  0.56518599  0.00805273     0.86170
C769        C  0.38299855  0.49635069  0.92877803     1.07740
H770        H  0.35381851  0.59828288  0.95044257     0.39540
O771        O  0.35008400  0.59180131  0.91470920    -1.08720
O772        O  0.36343986  0.59748599  0.80611505    -0.65370
Ni773      Ni  0.38426570  0.60191724  0.87466756     1.26350
O774        O  0.36298835  0.54739273  0.98280902    -0.65600
O775        O  0.37636470  0.64380275  0.87502462    -0.77890
C776        C  0.44459209  0.60094177  0.86145379     0.85550
O777        O  0.42128026  0.60882490  0.83778949    -0.65070
Ni778      Ni  0.31487019  0.61066234  0.90103041     1.27450
Ni779      Ni  0.35427258  0.54935557  0.90778789     1.26060
H780        H  0.39548060  0.55153681  0.84462556     0.40090
O781        O  0.15447032  0.68883394  0.64026449    -0.79860
O782        O  0.19695575  0.56037386  0.67746783    -0.64550
O783        O  0.17756122  0.63388870  0.61639538    -1.11150
C784        C  0.07576586  0.59730267  0.63492061     1.07030
O785        O  0.16167750  0.53843593  0.63453176    -0.77760
O786        O  0.12095525  0.55925984  0.57095119    -0.65340
Ni787      Ni  0.18882467  0.66650517  0.66102050     1.34870
C788        C  0.12867622  0.57820485  0.53544078     0.85760
O789        O  0.22905645  0.60504165  0.63981445    -0.78300
O790        O  0.22671662  0.64836030  0.68242613    -0.88570
C791        C  0.17920764  0.53896551  0.67299384     0.85340
O792        O  0.16570015  0.65180155  0.72324034    -0.66770
O793        O  0.08626611  0.57372797  0.65512192    -0.86060
C794        C  0.17053352  0.62684023  0.74489930     0.86170
C795        C  0.24145946  0.62554539  0.66648241     1.07740
H796        H  0.13759581  0.59719162  0.69106189     0.39540
O797        O  0.14419881  0.59251201  0.65528988    -1.08720
O798        O  0.13833026  0.60471000  0.54599075    -0.65370
Ni799      Ni  0.13520818  0.62637589  0.61451615     1.26350
O800        O  0.18821693  0.60939690  0.72131678    -0.65600
O801        O  0.09239552  0.61855459  0.61567036    -0.77890
C802        C  0.13768723  0.68787437  0.59977367     0.85550
O803        O  0.12972041  0.66340457  0.57785325    -0.65070
Ni804      Ni  0.12430244  0.55601327  0.64531533     1.27450
Ni805      Ni  0.18746610  0.59719699  0.64727309     1.26060
H806        H  0.18629982  0.63602280  0.58079627     0.40090
O807        O  0.12822431  0.29846608  0.77991008    -0.79860
O808        O  0.15961494  0.43206158  0.77243459    -0.64550
O809        O  0.15103949  0.35238805  0.81204045    -1.11150
C810        C  0.04846317  0.37261877  0.79570026     1.07030
O811        O  0.12123760  0.44606537  0.82450544    -0.77760
O812        O  0.07841188  0.40953465  0.86839904    -0.65340
Ni813      Ni  0.16306250  0.32341004  0.76200584     1.34870
C814        C  0.09646366  0.39932289  0.90095356     0.85760
O815        O  0.19929506  0.38889940  0.79000691    -0.78300
O816        O  0.20047243  0.34541696  0.74547767    -0.88570
C817        C  0.14632270  0.45122972  0.80096847     0.85340
O818        O  0.14162772  0.34019288  0.70252960    -0.66770
O819        O  0.05673178  0.39736809  0.77391160    -0.86060
C820        C  0.14492377  0.36680410  0.68563697     0.86170
C821        C  0.21361333  0.36864841  0.76468681     1.07740
H822        H  0.10865331  0.38581422  0.74651004     0.39540
O823        O  0.11428510  0.39036920  0.78225113    -1.08720
O824        O  0.11261318  0.37694243  0.88818019    -0.65370
Ni825      Ni  0.10896750  0.35487019  0.82000414     1.26350
O826        O  0.16038531  0.38496406  0.71206364    -0.65600
O827        O  0.06610997  0.35672958  0.82265538    -0.77890
C828        C  0.11399047  0.29513738  0.82486168     0.85550
O829        O  0.10694418  0.31723273  0.85402355    -0.65070
Ni830      Ni  0.08919126  0.42170707  0.79803397     1.27450
Ni831      Ni  0.15666902  0.39160580  0.78806175     1.26060
H832        H  0.16019861  0.34939027  0.84608494     0.40090
C833        C  0.19581190  0.50418952  0.74140594     0.24630
C834        C  0.17332621  0.52132607  0.72031621    -0.23480
C835        C  0.14581448  0.52344323  0.74778643     0.19530
C836        C  0.13872600  0.50373174  0.78903115     0.24570
C837        C  0.15869372  0.48120591  0.79995648    -0.23430
C838        C  0.18862953  0.48450260  0.78287220     0.19470
F839        F  0.20909024  0.46459727  0.79817926    -0.13380
F840        F  0.22357388  0.50441797  0.71856588    -0.15750
F841        F  0.11063810  0.50315343  0.81049409    -0.15750
F842        F  0.12540360  0.54351788  0.73344179    -0.13380
C843        C  0.31835956  0.64082484  0.72280476     0.24630
C844        C  0.32644204  0.61221519  0.74022073    -0.23480
C845        C  0.30931183  0.58777021  0.72307672     0.19530
C846        C  0.28287299  0.59202789  0.69535116     0.24570
C847        C  0.27271056  0.62098366  0.68440954    -0.23430
C848        C  0.29162877  0.64521548  0.69615799     0.19470
F849        F  0.28335473  0.67340001  0.68506228    -0.13380
F850        F  0.33406168  0.66506616  0.73913207    -0.15750
F851        F  0.26560358  0.56778969  0.68478135    -0.15750
F852        F  0.31562028  0.55999552  0.74040002    -0.13380
C853        C  0.14639197  0.57508266  0.85997152     0.24630
C854        C  0.11999126  0.58768562  0.88072166    -0.23480
C855        C  0.11075074  0.61452939  0.85729892     0.19530
C856        C  0.12745309  0.62813974  0.81454247     0.24570
C857        C  0.15409074  0.61551670  0.79463093    -0.23430
C858        C  0.16324682  0.58888962  0.81874576     0.19470
F859        F  0.18884948  0.57572268  0.80246225    -0.13380
F860        F  0.15652517  0.54917108  0.88003934    -0.15750
F861        F  0.11726363  0.65341828  0.79227117    -0.15750
F862        F  0.08590165  0.62799765  0.87634256    -0.13380
C863        C  0.07162311  0.45752147  0.99493737     0.24630
C864        C  0.09785503  0.47473380  0.99877925    -0.23480
C865        C  0.12509901  0.46156407  0.98352709     0.19530
C866        C  0.12558785  0.43330592  0.95920104     0.24570
C867        C  0.09893217  0.41744889  0.95035167    -0.23430
C868        C  0.07225011  0.42904166  0.97219606     0.19470
F869        F  0.04600027  0.41446065  0.96448419    -0.13380
F870        F  0.04501462  0.46897484  0.01022370    -0.15750
F871        F  0.15161115  0.42344036  0.93768237    -0.15750
F872        F  0.15102226  0.47733167  0.98670009    -0.13380
C873        C  0.23620098  0.53727073  0.01596342     0.24630
C874        C  0.21572610  0.55821586  0.00065837    -0.23480
C875        C  0.21785717  0.57234917  0.95089913     0.19530
C876        C  0.24181750  0.56711115  0.91724032     0.24570
C877        C  0.26454600  0.54881269  0.93476095    -0.23430
C878        C  0.26081445  0.53242562  0.98289848     0.19470
F879        F  0.28165099  0.51327127  0.99955565    -0.13380
F880        F  0.23265914  0.52225246  0.06302901    -0.15750
F881        F  0.24376857  0.58172745  0.86955250    -0.15750
F882        F  0.19687296  0.59174797  0.93561810    -0.13380
C883        C  0.40540459  0.44643274  0.94548834     0.24630
C884        C  0.38015937  0.46426492  0.94397872    -0.23480
C885        C  0.35258338  0.45197490  0.96245786     0.19530
C886        C  0.35106013  0.42386147  0.98753452     0.24570
C887        C  0.37700357  0.40744577  0.99417836    -0.23430
C888        C  0.40373298  0.41817603  0.96947790     0.19470
F889        F  0.42921154  0.40286489  0.97492821    -0.13380
F890        F  0.43215791  0.45708930  0.92664653    -0.15750
F891        F  0.32510832  0.41474216  0.01200540    -0.15750
F892        F  0.32765145  0.46849003  0.96174411    -0.13380
C893        C  0.37608194  0.60792215  0.07573940     0.24630
C894        C  0.36597267  0.58001349  0.05674911    -0.23480
C895        C  0.33932048  0.56803871  0.07963386     0.19530
C896        C  0.32296548  0.58340900  0.11849981     0.24570
C897        C  0.33303652  0.61105747  0.13857254    -0.23430
C898        C  0.35997188  0.62310853  0.11654173     0.19470
F899        F  0.37090679  0.64941192  0.13465022    -0.13380
F900        F  0.40113181  0.62090770  0.05406374    -0.15750
F901        F  0.29692231  0.57067899  0.13653013    -0.15750
F902        F  0.32851380  0.54112409  0.06407296    -0.13380
C903        C  0.19729450  0.64681816  0.24459146     0.24630
C904        C  0.21451695  0.62134906  0.25132195    -0.23480
C905        C  0.20197428  0.59349604  0.23730300     0.19530
C906        C  0.17486197  0.59178706  0.21057955     0.24570
C907        C  0.15971022  0.61778343  0.19746552    -0.23430
C908        C  0.16999400  0.64495042  0.21879476     0.19470
F909        F  0.15591877  0.67050781  0.20699174    -0.13380
F910        F  0.20787187  0.67393335  0.25945002    -0.15750
F911        F  0.16598828  0.56528015  0.18999797    -0.15750
F912        F  0.21754685  0.56820865  0.24354117    -0.13380
C913        C  0.29581390  0.47766537  0.16396461     0.24630
C914        C  0.32551340  0.47229148  0.14884151    -0.23480
C915        C  0.34761913  0.49384426  0.15798977     0.19530
C916        C  0.34158757  0.51622070  0.19417751     0.24570
C917        C  0.31335898  0.51728309  0.21923205    -0.23430
C918        C  0.28973999  0.50009504  0.20027498     0.19470
F919        F  0.26169002  0.50302722  0.22086146    -0.13380
F920        F  0.27373497  0.45840450  0.15032337    -0.15750
F921        F  0.36365385  0.53569291  0.20679059    -0.15750
F922        F  0.37604085  0.49046361  0.13952777    -0.13380
C923        C  0.38088590  0.37808687  0.36611513     0.24630
C924        C  0.36137144  0.39350549  0.40090525    -0.23480
C925        C  0.33045865  0.39096590  0.39213669     0.19530
C926        C  0.31964633  0.37512197  0.34881711     0.24570
C927        C  0.33906763  0.36116282  0.31268904    -0.23430
C928        C  0.36980656  0.36218761  0.32214801     0.19470
F929        F  0.38922945  0.34951548  0.28694075    -0.13380
F930        F  0.41067569  0.37935078  0.37323857    -0.15750
F931        F  0.28991739  0.37457301  0.34057456    -0.15750
F932        F  0.31020956  0.40400559  0.42523055    -0.13380
C933        C  0.33724521  0.52396972  0.50473624     0.24630
C934        C  0.36582433  0.51213539  0.51126705    -0.23480
C935        C  0.39068447  0.53014198  0.49648430     0.19530
C936        C  0.38703540  0.55716693  0.46943101     0.24570
C937        C  0.35858845  0.56616306  0.45441099    -0.23430
C938        C  0.33368920  0.55054767  0.47593760     0.19470
F939        F  0.30596112  0.55845120  0.46208016    -0.13380
F940        F  0.31253458  0.50834814  0.52099457    -0.15750
F941        F  0.41160243  0.57193145  0.44958532    -0.15750
F942        F  0.41866798  0.52057805  0.50438730    -0.13380
C943        C  0.28871624  0.39940915  0.71213242     0.24630
C944        C  0.30536021  0.37317994  0.70877267    -0.23480
C945        C  0.29370094  0.34757422  0.73513995     0.19530
C946        C  0.26456146  0.34684299  0.75676640     0.24570
C947        C  0.24651029  0.37200889  0.75426960    -0.23430
C948        C  0.25961959  0.39889822  0.73508460     0.19470
F949        F  0.24312622  0.42378663  0.73248992    -0.13380
F950        F  0.29881586  0.42439853  0.68630039    -0.15750
F951        F  0.25322114  0.32073669  0.77670157    -0.15750
F952        F  0.30897833  0.32182977  0.73271195    -0.13380
C953        C  0.11188131  0.36047291  0.60449194     0.24630
C954        C  0.12814798  0.37884714  0.63927081    -0.23480
C955        C  0.12707935  0.41003909  0.63123598     0.19530
C956        C  0.11262357  0.42212330  0.58777631     0.24570
C957        C  0.09817811  0.40380540  0.55111075    -0.23430
C958        C  0.09694425  0.37286168  0.56094547     0.19470
F959        F  0.08328086  0.35440216  0.52612549    -0.13380
F960        F  0.11132858  0.33050090  0.61123270    -0.15750
F961        F  0.11411274  0.45203258  0.57982095    -0.15750
F962        F  0.14098096  0.42931546  0.66429751    -0.13380
C963        C  0.14277086  0.52271241  0.43165425     0.24630
C964        C  0.11319077  0.51244399  0.42459031    -0.23480
C965        C  0.09001699  0.53165641  0.43954146     0.19530
C966        C  0.09606653  0.55834374  0.46667770     0.24570
C967        C  0.12530074  0.56621205  0.48085318    -0.23430
C968        C  0.14866357  0.54919405  0.45962380     0.19470
F969        F  0.17705452  0.55565535  0.47324626    -0.13380
F970        F  0.16612408  0.50558324  0.41706768    -0.15750
F971        F  0.07286211  0.57400843  0.48701140    -0.15750
F972        F  0.06122609  0.52352635  0.43201490    -0.13380
C973        C  0.22128147  0.45216643  0.48620702     0.24630
C974        C  0.20054162  0.43036512  0.50327903    -0.23480
C975        C  0.20276837  0.41683817  0.55340891     0.19530
C976        C  0.22903515  0.41979772  0.58031729     0.24570
C977        C  0.25331407  0.43412257  0.55400655    -0.23430
C978        C  0.24805816  0.45426281  0.51212579     0.19470
F979        F  0.27041355  0.47088871  0.48895864    -0.13380
F980        F  0.21828737  0.46680475  0.43909841    -0.15750
F981        F  0.23262691  0.40306682  0.62487361    -0.15750
F982        F  0.18191550  0.39673431  0.57131124    -0.13380
C983        C  0.18109580  0.35155885  0.23557687     0.24630
C984        C  0.17558312  0.37915749  0.25991694    -0.23480
C985        C  0.19655273  0.40248157  0.25079229     0.19530
C986        C  0.22343240  0.39765619  0.22224085     0.24570
C987        C  0.23025563  0.36923113  0.20240383    -0.23430
C988        C  0.20818418  0.34656789  0.20759367     0.19470
F989        F  0.21362032  0.31890712  0.18860257    -0.13380
F990        F  0.16198210  0.32824146  0.24482547    -0.15750
F991        F  0.24418774  0.41993819  0.21969502    -0.15750
F992        F  0.19252766  0.42911891  0.27506406    -0.13380
C993        C  0.37334237  0.20455870  0.11810807     0.24630
C994        C  0.36377920  0.19523426  0.06765696    -0.23480
C995        C  0.35565302  0.21664292  0.02987104     0.19530
C996        C  0.35504333  0.24669687  0.04376008     0.24570
C997        C  0.36193645  0.25544692  0.09582154    -0.23430
C998        C  0.37209918  0.23442272  0.13220271     0.19470
F999        F  0.37946690  0.24265284  0.18237684    -0.13380
F1000       F  0.38133158  0.18453913  0.15564363    -0.15750
F1001       F  0.34528584  0.26683574  0.00798594    -0.15750
F1002       F  0.34700734  0.20832169  0.98047460    -0.13380
C1003       C  0.23297066  0.04991213  0.91771566     0.24630
C1004       C  0.22216758  0.07841527  0.90878181    -0.23480
C1005       C  0.23286852  0.10286126  0.93729072     0.19530
C1006       C  0.25255300  0.09847315  0.97785299     0.24570
C1007       C  0.26233183  0.06966757  0.98887352    -0.23430
C1008       C  0.25306550  0.04550896  0.95769581     0.19470
F1009       F  0.26304259  0.01765697  0.96670712    -0.13380
F1010       F  0.22223919  0.02615568  0.89042669    -0.15750
F1011       F  0.26228564  0.12245101  0.00566402    -0.15750
F1012       F  0.22183772  0.13044430  0.92975538    -0.13380
C1013       C  0.09529053  0.21375951  0.81510609     0.24630
C1014       C  0.10514667  0.20344508  0.86458873    -0.23480
C1015       C  0.11227743  0.22417895  0.90446308     0.19530
C1016       C  0.11223510  0.25468692  0.89325114     0.24570
C1017       C  0.10562796  0.26469854  0.84177449    -0.23430
C1018       C  0.09584762  0.24415691  0.80363536     0.19470
F1019       F  0.08864460  0.25343280  0.75398417    -0.13380
F1020       F  0.08809012  0.19440489  0.77578766    -0.15750
F1021       F  0.12154375  0.27416579  0.93086713    -0.15750
F1022       F  0.12102981  0.21483918  0.95315693    -0.13380
C1023       C  0.10052888  0.74727267  0.04940967     0.24630
C1024       C  0.12662794  0.76478851  0.04669454    -0.23480
C1025       C  0.15342491  0.75175422  0.03000584     0.19530
C1026       C  0.15487345  0.72110557  0.02193597     0.24570
C1027       C  0.12937002  0.70280772  0.03050163    -0.23430
C1028       C  0.10180019  0.71648961  0.04102327     0.19470
F1029       F  0.07636168  0.69990643  0.04683876    -0.13380
F1030       F  0.07445994  0.75939942  0.06595004    -0.15750
F1031       F  0.18192924  0.70922050  0.01140635    -0.15750
F1032       F  0.17908088  0.76823026  0.02837650    -0.13380
C1033       C  0.14943176  0.94097703  0.98549177     0.24630
C1034       C  0.12507021  0.92142372  0.99600111    -0.23480
C1035       C  0.09759303  0.92846126  0.97396314     0.19530
C1036       C  0.09371521  0.95571956  0.94748366     0.24570
C1037       C  0.11739005  0.97654299  0.94135586    -0.23430
C1038       C  0.14573464  0.96809475  0.95804868     0.19470
F1039       F  0.16919404  0.98746906  0.95326227    -0.13380
F1040       F  0.17593568  0.93568219  0.00799781    -0.15750
F1041       F  0.06620236  0.96255193  0.93083603    -0.15750
F1042       F  0.07338577  0.91065137  0.98450143    -0.13380
C1043       C  0.14519211  0.23484641  0.38674847     0.24630
C1044       C  0.12173036  0.22035228  0.36124422    -0.23480
C1045       C  0.09704648  0.23673847  0.34607678     0.19530
C1046       C  0.09667306  0.26765583  0.35361857     0.24570
C1047       C  0.12132595  0.28252181  0.37547117    -0.23430
C1048       C  0.14501522  0.26558141  0.39395307     0.19470
F1049       F  0.16864732  0.27889545  0.41732997    -0.13380
F1050       F  0.16950852  0.21947087  0.40070183    -0.15750
F1051       F  0.07334945  0.28321435  0.33574160    -0.15750
F1052       F  0.07458115  0.22320422  0.31976092    -0.13380
C1053       C  0.09844568  0.11476348  0.07371214     0.24630
C1054       C  0.11739145  0.10038684  0.03652185    -0.23480
C1055       C  0.14833953  0.10643980  0.03910726     0.19530
C1056       C  0.16003844  0.12367130  0.07995045     0.24570
C1057       C  0.14153426  0.13537307  0.12020279    -0.23430
C1058       C  0.11043561  0.13211819  0.11523140     0.19470
F1059       F  0.09172147  0.14368778  0.15288371    -0.13380
F1060       F  0.06852355  0.11071563  0.07185443    -0.15750
F1061       F  0.19005967  0.12657364  0.08312811    -0.15750
F1062       F  0.16791890  0.09494821  0.00299987    -0.13380
C1063       C  0.30385709  0.12910955  0.22839438     0.24630
C1064       C  0.31160931  0.10310740  0.20027006    -0.23480
C1065       C  0.29040853  0.07962658  0.19991739     0.19530
C1066       C  0.26110538  0.08368652  0.21994576     0.24570
C1067       C  0.25225334  0.11144545  0.24064897    -0.23430
C1068       C  0.27450066  0.13348180  0.24728127     0.19470
F1069       F  0.26748289  0.16009781  0.26918247    -0.13380
F1070       F  0.32356017  0.15234735  0.22957776    -0.15750
F1071       F  0.24072323  0.06142864  0.21379792    -0.15750
F1072       F  0.29666390  0.05435919  0.17263363    -0.13380
C1073       C  0.19376747  0.98185401  0.19150509     0.24630
C1074       C  0.18181489  0.95843673  0.22219383    -0.23480
C1075       C  0.16658539  0.96359203  0.27070267     0.19530
C1076       C  0.15690238  0.99202101  0.28157347     0.24570
C1077       C  0.16334005  0.01473431  0.24420396    -0.23430
C1078       C  0.18420183  0.01023656  0.20196463     0.19470
F1079       F  0.19187692  0.03208071  0.16617367    -0.13380
F1080       F  0.20942792  0.97646899  0.14541162    -0.15750
F1081       F  0.13878329  0.99657468  0.32502295    -0.15750
F1082       F  0.15578593  0.94048289  0.30112300    -0.13380
C1083       C  0.34161581  0.75379892  0.42150841     0.24630
C1084       C  0.35503586  0.77570586  0.38779742    -0.23480
C1085       C  0.37071232  0.76658846  0.34108388     0.19530
C1086       C  0.37082257  0.73675895  0.32638224     0.24570
C1087       C  0.35585938  0.71527560  0.35823686    -0.23430
C1088       C  0.34222086  0.72372056  0.40691692     0.19470
F1089       F  0.32731691  0.70320716  0.43797360    -0.13380
F1090       F  0.32698056  0.76152559  0.46743766    -0.15750
F1091       F  0.38414768  0.72901117  0.27917688    -0.15750
F1092       F  0.38411201  0.78668156  0.30708130    -0.13380
C1093       C  0.27025870  0.87924242  0.20891445     0.24630
C1094       C  0.25804422  0.85036946  0.20000818    -0.23480
C1095       C  0.27501696  0.82581455  0.21456182     0.19530
C1096       C  0.30172243  0.82995344  0.24173128     0.24570
C1097       C  0.31187044  0.85866212  0.25625101    -0.23430
C1098       C  0.29669404  0.88322736  0.23691421     0.19470
F1099       F  0.30512294  0.91111084  0.25157598    -0.13380
F1100       F  0.25525930  0.90394728  0.19531513    -0.15750
F1101       F  0.31556824  0.80564249  0.26065706    -0.15750
F1102       F  0.26488795  0.79768212  0.20575824    -0.13380
C1103       C  0.13842863  0.87175910  0.37902424     0.24630
C1104       C  0.10725829  0.87573865  0.38185154    -0.23480
C1105       C  0.09014768  0.86095671  0.34324398     0.19530
C1106       C  0.10431127  0.84489995  0.30106536     0.24570
C1107       C  0.13566660  0.84244908  0.29828684    -0.23430
C1108       C  0.15202153  0.85478108  0.33948995     0.19470
F1109       F  0.18213274  0.85258006  0.33890681    -0.13380
F1110       F  0.15674355  0.88491563  0.41386295    -0.15750
F1111       F  0.08769446  0.83389422  0.26099080    -0.15750
F1112       F  0.06017976  0.86387166  0.34389241    -0.13380
C1113       C  0.12361881  0.01599176  0.45413385     0.24630
C1114       C  0.09577144  0.00233476  0.46832288    -0.23480
C1115       C  0.07001829  0.01888919  0.46073580     0.19530
C1116       C  0.07185734  0.04720635  0.43643319     0.24570
C1117       C  0.09943324  0.05970973  0.41816538    -0.23430
C1118       C  0.12535211  0.04418575  0.42923283     0.19470
F1119       F  0.15216442  0.05464089  0.41027453    -0.13380
F1120       F  0.14926357  0.00103424  0.46004211    -0.15750
F1121       F  0.04624664  0.06139433  0.42614408    -0.15750
F1122       F  0.04286226  0.00726815  0.47504352    -0.13380
C1123       C  0.23021473  0.94963158  0.51622470     0.24630
C1124       C  0.20866176  0.94446442  0.47836397    -0.23480
C1125       C  0.21642804  0.94532911  0.42374612     0.19530
C1126       C  0.24541077  0.93896189  0.40891697     0.24570
C1127       C  0.26568053  0.93451353  0.44923242    -0.23430
C1128       C  0.25934999  0.94370457  0.50191234     0.19470
F1129       F  0.27969197  0.94160760  0.54081760    -0.13380
F1130       F  0.22238918  0.95421801  0.56823836    -0.15750
F1131       F  0.25255395  0.93290603  0.35702706    -0.15750
F1132       F  0.19524247  0.94430378  0.38623048    -0.13380
C1133       C  0.13697562  0.75840347  0.51801119     0.24630
C1134       C  0.12633388  0.77875859  0.55657303    -0.23480
C1135       C  0.11399791  0.76734244  0.60515339     0.19530
C1136       C  0.11494465  0.73691547  0.61681259     0.24570
C1137       C  0.12765057  0.71698346  0.58003554    -0.23430
C1138       C  0.13748864  0.72776106  0.52962463     0.19470
F1139       F  0.15000851  0.70901312  0.49343985    -0.13380
F1140       F  0.14786272  0.76820964  0.46977399    -0.15750
F1141       F  0.10525710  0.72710596  0.66584135    -0.15750
F1142       F  0.10306414  0.78580681  0.64344072    -0.13380
C1143       C  0.37030351  0.73497587  0.83987462     0.24630
C1144       C  0.35334080  0.75248242  0.87478986    -0.23480
C1145       C  0.34178476  0.74042495  0.92293707     0.19530
C1146       C  0.34472242  0.71008443  0.93354826     0.24570
C1147       C  0.35950948  0.69182666  0.89612975    -0.23430
C1148       C  0.37367309  0.70491419  0.85058945     0.19470
F1149       F  0.38829867  0.68822942  0.81352308    -0.13380
F1150       F  0.38181442  0.74662124  0.79333711    -0.15750
F1151       F  0.33179197  0.69831019  0.97878248    -0.15750
F1152       F  0.32553041  0.75740034  0.95720257    -0.13380
C1153       C  0.38641849  0.86427553  0.59830131     0.24630
C1154       C  0.36869020  0.87793685  0.55999432    -0.23480
C1155       C  0.33752717  0.87264660  0.56430649     0.19530
C1156       C  0.32448441  0.85612280  0.60603258     0.24570
C1157       C  0.34159772  0.84505358  0.64678585    -0.23430
C1158       C  0.37292294  0.84827490  0.64189460     0.19470
F1159       F  0.39027415  0.83780999  0.68099776    -0.13380
F1160       F  0.41641552  0.86812249  0.59577444    -0.15750
F1161       F  0.29434624  0.85325468  0.60927500    -0.15750
F1162       F  0.31878790  0.88401199  0.52881337    -0.13380
C1163       C  0.22977896  0.88608687  0.69632316     0.24630
C1164       C  0.22762381  0.86715457  0.74094216    -0.23480
C1165       C  0.19932880  0.85489678  0.75545102     0.19530
C1166       C  0.17424437  0.85999442  0.72354349     0.24570
C1167       C  0.17703208  0.87736441  0.67649881    -0.23430
C1168       C  0.20506738  0.89103729  0.66487974     0.19470
F1169       F  0.20965810  0.90605625  0.61834509    -0.13380
F1170       F  0.25672014  0.89742046  0.67967934    -0.15750
F1171       F  0.14804431  0.84581950  0.73593203    -0.15750
F1172       F  0.19624834  0.83698365  0.79911144    -0.13380
C1173       C  0.39261766  0.92046389  0.97376625     0.24630
C1174       C  0.36629348  0.90911989  0.95140536    -0.23480
C1175       C  0.34069312  0.92658651  0.95470234     0.19530
C1176       C  0.34222974  0.95577141  0.97490823     0.24570
C1177       C  0.36950744  0.96814298  0.99161389    -0.23430
C1178       C  0.39433553  0.94970946  0.99280349     0.19470
F1179       F  0.42075692  0.96044930  0.01014356    -0.13380
F1180       F  0.41782112  0.90430741  0.97114358    -0.15750
F1181       F  0.31772256  0.97285966  0.97316538    -0.15750
F1182       F  0.31523767  0.91694123  0.93197155    -0.13380
C1183       C  0.37935924  0.24063148  0.59873567     0.24630
C1184       C  0.36095843  0.22116159  0.57047798    -0.23480
C1185       C  0.34290684  0.23256245  0.53079670     0.19530
C1186       C  0.34094206  0.26337253  0.52336091     0.24570
C1187       C  0.35701644  0.28322807  0.55584559    -0.23430
C1188       C  0.37770474  0.27134431  0.59123804     0.19470
F1189       F  0.39461299  0.28927730  0.62219183    -0.13380
F1190       F  0.39688904  0.22996668  0.63747582    -0.15750
F1191       F  0.32186730  0.27363431  0.48678292    -0.15750
F1192       F  0.32479433  0.21402654  0.50328003    -0.13380
C1193       C  0.36875211  0.12629439  0.81071300     0.24630
C1194       C  0.33750085  0.12689318  0.80536123    -0.23480
C1195       C  0.31973454  0.11178171  0.84383638     0.19530
C1196       C  0.33229896  0.09478065  0.88380748     0.24570
C1197       C  0.36346379  0.09255393  0.88858992    -0.23430
C1198       C  0.38159853  0.10952626  0.85225679     0.19470
F1199       F  0.41164591  0.10873815  0.85509160    -0.13380
F1200       F  0.38689807  0.14021643  0.77380651    -0.15750
F1201       F  0.31326101  0.07984381  0.91728405    -0.15750
F1202       F  0.28962625  0.11193377  0.84070828    -0.13380
C1203       C  0.21100102  0.09108858  0.70889083     0.24630
C1204       C  0.22247226  0.11814869  0.68712147    -0.23480
C1205       C  0.20262991  0.14151898  0.67994501     0.19530
C1206       C  0.17295619  0.13897615  0.69872645     0.24570
C1207       C  0.16256582  0.11348073  0.72724667    -0.23430
C1208       C  0.18136379  0.08882337  0.72883163     0.19470
F1209       F  0.17253330  0.06407699  0.75675373    -0.13380
F1210       F  0.22928039  0.06783126  0.71616979    -0.15750
F1211       F  0.15554705  0.16326874  0.69634096    -0.15750
F1212       F  0.21239510  0.16759127  0.65746857    -0.13380
C1213       C  0.35061237  0.01083904  0.74647799     0.24630
C1214       C  0.32517309  0.01699619  0.71810798    -0.23480
C1215       C  0.29912209  0.99989653  0.72477834     0.19530
C1216       C  0.29986659  0.97390349  0.75436141     0.24570
C1217       C  0.32667052  0.96562945  0.77719203    -0.23430
C1218       C  0.35132191  0.98525431  0.77673826     0.19470
F1219       F  0.37712586  0.97826714  0.80033707    -0.13380
F1220       F  0.37506627  0.02905881  0.74311303    -0.15750
F1221       F  0.27534439  0.95578702  0.75723746    -0.15750
F1222       F  0.27392250  0.00724078  0.69958648    -0.13380
C1223       C  0.34829241  0.01493319  0.47426025     0.24630
C1224       C  0.37633233  0.00309623  0.45966529    -0.23480
C1225       C  0.40149509  0.02199702  0.46245238     0.19530
C1226       C  0.39906432  0.05092353  0.48316107     0.24570
C1227       C  0.37155643  0.06158383  0.50309787    -0.23430
C1228       C  0.34601072  0.04371901  0.49595040     0.19470
F1229       F  0.31933634  0.05250830  0.51645883    -0.13380
F1230       F  0.32324144  0.99767535  0.47238062    -0.15750
F1231       F  0.42432637  0.06733678  0.48994791    -0.15750
F1232       F  0.42875733  0.01205648  0.44737320    -0.13380
C1233       C  0.97436524  0.87715838  0.67603311     0.24630
C1234       C  0.95430682  0.85999181  0.64594729    -0.23480
C1235       C  0.96603749  0.83945143  0.60869605     0.19530
C1236       C  0.99649558  0.83930468  0.59653639     0.24570
C1237       C  0.01590589  0.85909117  0.62189510    -0.23430
C1238       C  0.00499164  0.87666072  0.66400263     0.19470
F1239       F  0.02346628  0.89596718  0.68902790    -0.13380
F1240       F  0.96429092  0.89612252  0.71423561    -0.15750
F1241       F  0.00668792  0.82205919  0.55575911    -0.15750
F1242       F  0.94798460  0.82151679  0.57983613    -0.13380
C1243       C  0.79114519  0.99418064  0.73903143     0.24630
C1244       C  0.81707764  0.00569674  0.76133243    -0.23480
C1245       C  0.84519600  0.99690120  0.74256255     0.19530
C1246       C  0.84737138  0.97677324  0.70123577     0.24570
C1247       C  0.82141974  0.96484572  0.67949941    -0.23430
C1248       C  0.79330303  0.97384350  0.69799184     0.19470
F1249       F  0.76805578  0.96210032  0.67746744    -0.13380
F1250       F  0.76388723  0.00318868  0.75637251    -0.15750
F1251       F  0.87474507  0.96764899  0.68478746    -0.15750
F1252       F  0.87054290  0.00901166  0.76206992    -0.13380
C1253       C  0.95564890  0.12083922  0.86971329     0.24630
C1254       C  0.94468067  0.11216384  0.81998460    -0.23480
C1255       C  0.96495980  0.10467945  0.77845811     0.19530
C1256       C  0.99548049  0.10358081  0.78786770     0.24570
C1257       C  0.00598089  0.10933934  0.83920148    -0.23430
C1258       C  0.98598875  0.11917107  0.87935588     0.19470
F1259       F  0.99565122  0.12563126  0.92900945    -0.13380
F1260       F  0.93675874  0.12816346  0.91069240    -0.15750
F1261       F  0.01432864  0.09430919  0.74826223    -0.15750
F1262       F  0.95504508  0.09696607  0.72957186    -0.13380
C1263       C  0.50162068  0.85467123  0.77967800     0.24630
C1264       C  0.51200907  0.85046296  0.83137788    -0.23480
C1265       C  0.49254806  0.83865361  0.87139448     0.19530
C1266       C  0.46222738  0.83505498  0.86196166     0.24570
C1267       C  0.45099026  0.84378554  0.81254519    -0.23430
C1268       C  0.47120554  0.85139131  0.77025727     0.19470
F1269       F  0.46116010  0.85860924  0.72127728    -0.13380
F1270       F  0.52012081  0.86579545  0.74033586    -0.15750
F1271       F  0.44356305  0.82702216  0.90339344    -0.15750
F1272       F  0.50237160  0.83392550  0.92151466    -0.13380
C1273       C  0.68316218  0.88762725  0.71871458     0.24630
C1274       C  0.66549597  0.86273343  0.73457673    -0.23480
C1275       C  0.67526957  0.83444567  0.71829515     0.19530
C1276       C  0.70364893  0.83080310  0.69421141     0.24570
C1277       C  0.72281975  0.85547697  0.68402811    -0.23430
C1278       C  0.71138679  0.88409952  0.69358374     0.19470
F1279       F  0.72879908  0.90866938  0.68434917    -0.13380
F1280       F  0.67516814  0.91518183  0.73500476    -0.15750
F1281       F  0.71313813  0.80282933  0.68433841    -0.15750
F1282       F  0.65924986  0.80979274  0.73365582    -0.13380
C1283       C  0.01593441  0.85033612  0.12301261     0.24630
C1284       C  0.03312951  0.87681357  0.12529158    -0.23480
C1285       C  0.01919181  0.90421318  0.11771525     0.19530
C1286       C  0.98913514  0.90517191  0.10642415     0.24570
C1287       C  0.97204136  0.87888667  0.10290705    -0.23430
C1288       C  0.98539163  0.85140071  0.11233824     0.19470
F1289       F  0.96934354  0.82568424  0.10822427    -0.13380
F1290       F  0.02869682  0.82359955  0.13062522    -0.15750
F1291       F  0.97682285  0.93197122  0.09686762    -0.15750
F1292       F  0.03509145  0.93021042  0.11801707    -0.13380
C1293       C  0.85811078  0.84929873  0.82969954     0.24630
C1294       C  0.83878314  0.86545277  0.79735595    -0.23480
C1295       C  0.83695550  0.89650917  0.80624172     0.19530
C1296       C  0.85281355  0.91052824  0.84650925     0.24570
C1297       C  0.87068168  0.89430415  0.88057888    -0.23430
C1298       C  0.87375660  0.86355340  0.87107884     0.19470
F1299       F  0.89045907  0.84695302  0.90377878    -0.13380
F1300       F  0.86131643  0.81963628  0.82236133    -0.15750
F1301       F  0.84962538  0.94024118  0.85380290    -0.15750
F1302       F  0.81936192  0.91384936  0.77651965    -0.13380
C1303       C  0.83348618  0.01360651  0.98701209     0.24630
C1304       C  0.86132408  0.00561844  0.00678144    -0.23480
C1305       C  0.88344724  0.02795911  0.01057540     0.19530
C1306       C  0.87897934  0.05664432  0.99008446     0.24570
C1307       C  0.85282732  0.06335634  0.96297656    -0.23430
C1308       C  0.82931162  0.04219257  0.96534731     0.19470
F1309       F  0.80399578  0.04745148  0.93886974    -0.13380
F1310       F  0.81145025  0.99275867  0.98274391    -0.15750
F1311       F  0.90223541  0.07637069  0.98848615    -0.15750
F1312       F  0.91024535  0.02146876  0.03083295    -0.13380
C1313       C  0.73814037  0.93373392  0.89861642     0.24630
C1314       C  0.71246798  0.93213696  0.93146612    -0.23480
C1315       C  0.71393612  0.92558011  0.98618485     0.19530
C1316       C  0.74020771  0.91535891  0.00563290     0.24570
C1317       C  0.76476553  0.91297648  0.97076888    -0.23430
C1318       C  0.76463031  0.92413530  0.91862760     0.19470
F1319       F  0.78937435  0.92361069  0.88645427    -0.13380
F1320       F  0.73661093  0.94097718  0.84599750    -0.15750
F1321       F  0.74120989  0.90573537  0.05714673    -0.15750
F1322       F  0.68903948  0.92413881  0.01829809    -0.13380
C1323       C  0.50505615  0.11037927  0.65156546     0.24630
C1324       C  0.51433649  0.11772925  0.59905413    -0.23480
C1325       C  0.49421269  0.13098623  0.56478755     0.19530
C1326       C  0.46443080  0.13390084  0.58065199     0.24570
C1327       C  0.45413162  0.12302444  0.63093201    -0.23430
C1328       C  0.47508183  0.11286979  0.66740430     0.19470
F1329       F  0.46623135  0.10331827  0.71702895    -0.13380
F1330       F  0.52421668  0.09771575  0.68547714    -0.15750
F1331       F  0.44526535  0.14437892  0.54439739    -0.15750
F1332       F  0.50292254  0.13886644  0.51414229    -0.13380
C1333       C  0.68108895  0.07926172  0.70326043     0.24630
C1334       C  0.66386777  0.10400155  0.69045977    -0.23480
C1335       C  0.67217970  0.13178403  0.71198562     0.19530
C1336       C  0.69909942  0.13554124  0.73866128     0.24570
C1337       C  0.71802770  0.11138155  0.74615557    -0.23430
C1338       C  0.70776979  0.08284062  0.73099122     0.19470
F1339       F  0.72516959  0.05882097  0.73736533    -0.13380
F1340       F  0.67450385  0.05233508  0.68176768    -0.15750
F1341       F  0.70757625  0.16328863  0.75396043    -0.15750
F1342       F  0.65656449  0.15630709  0.69958119    -0.13380
C1343       C  0.99902714  0.11841838  0.25911194     0.24630
C1344       C  0.02110403  0.12814274  0.29436276    -0.23480
C1345       C  0.01206240  0.13967911  0.34449575     0.19530
C1346       C  0.98233428  0.13729574  0.36182073     0.24570
C1347       C  0.96107248  0.12396618  0.32918252    -0.23430
C1348       C  0.96914775  0.11641923  0.27648129     0.19470
F1349       F  0.94883756  0.10364426  0.24420048    -0.13380
F1350       F  0.00660401  0.10850944  0.20946483    -0.15750
F1351       F  0.97484374  0.14499798  0.41284281    -0.15750
F1352       F  0.03228170  0.15000961  0.37953543    -0.13380
C1353       C  0.87589528  0.11490498  0.56932585     0.24630
C1354       C  0.87891594  0.08377387  0.56453779    -0.23480
C1355       C  0.86570928  0.06558088  0.60457019     0.19530
C1356       C  0.84815580  0.07753912  0.64575155     0.24570
C1357       C  0.84323226  0.10847595  0.64937267    -0.23430
C1358       C  0.85837766  0.12715896  0.61157048     0.19470
F1359       F  0.85501282  0.15705722  0.61370005    -0.13380
F1360       F  0.88785637  0.13328088  0.53088494    -0.15750
F1361       F  0.83562239  0.05822745  0.68185016    -0.15750
F1362       F  0.86841251  0.03556450  0.60208404    -0.13380
C1363       C  0.90345999  0.94895701  0.44883014     0.24630
C1364       C  0.87837906  0.96706379  0.44717132    -0.23480
C1365       C  0.85034258  0.95399985  0.46177439     0.19530
C1366       C  0.84809736  0.92498343  0.48317199     0.24570
C1367       C  0.87368769  0.90821143  0.49058358    -0.23430
C1368       C  0.90102767  0.91975658  0.46926689     0.19470
F1369       F  0.92629303  0.90424381  0.47569024    -0.13380
F1370       F  0.93067958  0.96000230  0.43343776    -0.15750
F1371       F  0.82149441  0.91515050  0.50415558    -0.15750
F1372       F  0.82525591  0.97028097  0.46060505    -0.13380
C1373       C  0.76208672  0.02609895  0.52417140     0.24630
C1374       C  0.76901832  0.02742028  0.46921107    -0.23480
C1375       C  0.74773088  0.01989985  0.43193723     0.19530
C1376       C  0.71813377  0.01997801  0.44823508     0.24570
C1377       C  0.71119020  0.02913545  0.50077156    -0.23430
C1378       C  0.73246803  0.02743133  0.54028062     0.19470
F1379       F  0.72524329  0.03335327  0.59220404    -0.13380
F1380       F  0.78337414  0.03095946  0.56076007    -0.15750
F1381       F  0.69714728  0.01859920  0.41027215    -0.15750
F1382       F  0.75509492  0.01885016  0.37893554    -0.13380
C1383       C  0.62752067  0.89961654  0.12479964     0.24630
C1384       C  0.63281379  0.86869220  0.12847214    -0.23480
C1385       C  0.61934721  0.84987387  0.09080015     0.19530
C1386       C  0.60296465  0.86197269  0.04873540     0.24570
C1387       C  0.59965448  0.89303041  0.04391398    -0.23430
C1388       C  0.61133799  0.91141326  0.08333198     0.19470
F1389       F  0.60814790  0.94136009  0.08032870    -0.13380
F1390       F  0.63815346  0.91904301  0.16121329    -0.15750
F1391       F  0.59222373  0.84355718  0.01068874    -0.15750
F1392       F  0.62306963  0.82002627  0.09318806    -0.13380
C1393       C  0.80184307  0.85057060  0.21364912     0.24630
C1394       C  0.80982509  0.87663593  0.18483918    -0.23480
C1395       C  0.78993878  0.90054149  0.18721882     0.19530
C1396       C  0.76149947  0.89713859  0.21174826     0.24570
C1397       C  0.75226872  0.86980949  0.23502993    -0.23430
C1398       C  0.77330077  0.84705137  0.23786415     0.19470
F1399       F  0.76546346  0.82049707  0.26071178    -0.13380
F1400       F  0.81992553  0.82675364  0.21120557    -0.15750
F1401       F  0.74174092  0.91926984  0.20638508    -0.15750
F1402       F  0.79621744  0.92558674  0.15814252    -0.13380
C1403       C  0.50166084  0.86324367  0.26214721     0.24630
C1404       C  0.52287698  0.85213453  0.29702589    -0.23480
C1405       C  0.51312543  0.83952283  0.34634529     0.19530
C1406       C  0.48364618  0.84226033  0.36371082     0.24570
C1407       C  0.46342031  0.85682872  0.33162495    -0.23430
C1408       C  0.47194062  0.86541048  0.27935269     0.19470
F1409       F  0.45239511  0.87907001  0.24745696    -0.13380
F1410       F  0.51011854  0.87432099  0.21333808    -0.15750
F1411       F  0.47542793  0.83306031  0.41389378    -0.15750
F1412       F  0.53262950  0.82786128  0.38080485    -0.13380
C1413       C  0.63048765  0.92876704  0.43791552     0.24630
C1414       C  0.60496856  0.91043219  0.43459726    -0.23480
C1415       C  0.57798988  0.92101722  0.45723121     0.19530
C1416       C  0.57570590  0.95040385  0.47568959     0.24570
C1417       C  0.60061719  0.96968013  0.47419199    -0.23430
C1418       C  0.62838778  0.95797654  0.45764295     0.19470
F1419       F  0.65319576  0.97565988  0.45601297    -0.13380
F1420       F  0.65667010  0.91993622  0.41541195    -0.15750
F1421       F  0.54885209  0.96028445  0.49328402    -0.15750
F1422       F  0.55279932  0.90398299  0.45488639    -0.13380
C1423       C  0.64396237  0.10137576  0.37492034     0.24630
C1424       C  0.61269622  0.09751392  0.37958089    -0.23480
C1425       C  0.59528838  0.11428052  0.34471208     0.19530
C1426       C  0.60902365  0.13227066  0.30385247     0.24570
C1427       C  0.64035250  0.13467517  0.29863528    -0.23430
C1428       C  0.65727515  0.12028313  0.33671782     0.19470
F1429       F  0.68746949  0.12239519  0.33380923    -0.13380
F1430       F  0.66239903  0.08644870  0.40684543    -0.15750
F1431       F  0.59183993  0.14527883  0.26702335    -0.15750
F1432       F  0.56518457  0.11178587  0.34781014    -0.13380
C1433       C  0.79442353  0.09397758  0.23897377     0.24630
C1434       C  0.80792192  0.11741908  0.26679419    -0.23480
C1435       C  0.79776653  0.14647231  0.25783627     0.19530
C1436       C  0.77315286  0.15166684  0.22578115     0.24570
C1437       C  0.75785578  0.12787838  0.20140127    -0.23430
C1438       C  0.76995226  0.09908290  0.20632802     0.19470
F1439       F  0.75660952  0.07518802  0.18346135    -0.13380
F1440       F  0.80277365  0.06559382  0.24809693    -0.15750
F1441       F  0.76312067  0.17985167  0.22190033    -0.15750
F1442       F  0.80966917  0.16960574  0.28527825    -0.13380
C1443       C  0.68852694  0.97965209  0.26731967     0.24630
C1444       C  0.66107090  0.97262429  0.29314997    -0.23480
C1445       C  0.64109102  0.99546964  0.30504508     0.19530
C1446       C  0.64407537  0.02187663  0.27668103     0.24570
C1447       C  0.66759465  0.02534984  0.23932875    -0.23430
C1448       C  0.69148094  0.00607838  0.23877853     0.19470
F1449       F  0.71559082  0.01104016  0.20579733    -0.13380
F1450       F  0.71012396  0.95914542  0.26226589    -0.15750
F1451       F  0.62239261  0.04243406  0.28082077    -0.15750
F1452       F  0.61615567  0.99055917  0.33599809    -0.13380
C1453       C  0.48699104  0.12803261  0.08829494     0.24630
C1454       C  0.46883783  0.10403492  0.10616652    -0.23480
C1455       C  0.48069689  0.08262146  0.13980540     0.19530
C1456       C  0.51063465  0.08417795  0.15337822     0.24570
C1457       C  0.52969587  0.10734517  0.13326440    -0.23430
C1458       C  0.51706544  0.12988481  0.10206098     0.19470
F1459       F  0.53397777  0.15309858  0.08286771    -0.13380
F1460       F  0.47586624  0.14906973  0.05575229    -0.15750
F1461       F  0.52111263  0.06182582  0.18381524    -0.15750
F1462       F  0.46370427  0.05888925  0.15658483    -0.13380
C1463       C  0.63515990  0.04568336  0.97506462     0.24630
C1464       C  0.61133007  0.06095285  0.99884981    -0.23480
C1465       C  0.58217304  0.05081631  0.98819808     0.19530
C1466       C  0.57702101  0.02455320  0.95911267     0.24570
C1467       C  0.60092491  0.00779256  0.93891611    -0.23430
C1468       C  0.63010204  0.01966616  0.94508289     0.19470
F1469       F  0.65415050  0.00461731  0.92667532    -0.13380
F1470       F  0.66351218  0.05387597  0.98618335    -0.15750
F1471       F  0.54858803  0.01463948  0.95362842    -0.15750
F1472       F  0.55855480  0.06454239  0.01161736    -0.13380
C1473       C  0.65489098  0.23927042  0.58913717     0.24630
C1474       C  0.62770240  0.25391821  0.58577553    -0.23480
C1475       C  0.60331110  0.23919958  0.56337394     0.19530
C1476       C  0.60562781  0.20940700  0.54769034     0.24570
C1477       C  0.63262947  0.19441754  0.55288707    -0.23430
C1478       C  0.65745465  0.20989938  0.57226786     0.19470
F1479       F  0.68361951  0.19592068  0.57870222    -0.13380
F1480       F  0.67883237  0.25325127  0.61032059    -0.15750
F1481       F  0.58136083  0.19496178  0.52874884    -0.15750
F1482       F  0.57686593  0.25301068  0.55989010    -0.13380
C1483       C  0.51023844  0.34773331  0.57971712     0.24630
C1484       C  0.52026520  0.35344117  0.63142556    -0.23480
C1485       C  0.49947310  0.36048763  0.67236113     0.19530
C1486       C  0.46976017  0.36520320  0.66036845     0.24570
C1487       C  0.46076340  0.36340159  0.60722030    -0.23430
C1488       C  0.48072513  0.35299702  0.56760085     0.19470
F1489       F  0.47217004  0.35004099  0.51622403    -0.13380
F1490       F  0.52965878  0.34065002  0.53939129    -0.15750
F1491       F  0.45070551  0.37470125  0.69947372    -0.15750
F1492       F  0.50846735  0.36523440  0.72303197    -0.13380
C1493       C  0.65564497  0.73495695  0.88132114     0.24630
C1494       C  0.62940321  0.71951774  0.86838431    -0.23480
C1495       C  0.60221706  0.73424865  0.87251799     0.19530
C1496       C  0.60169863  0.76475019  0.88495879     0.24570
C1497       C  0.62843345  0.78087600  0.89338934    -0.23430
C1498       C  0.65523039  0.76516077  0.89396417     0.19470
F1499       F  0.68162439  0.77950507  0.90139053    -0.13380
F1500       F  0.68228075  0.72130973  0.87677448    -0.15750
F1501       F  0.57525011  0.77879876  0.88598918    -0.15750
F1502       F  0.57658897  0.71984653  0.85992078    -0.13380
C1503       C  0.69261983  0.50134330  0.70151862     0.24630
C1504       C  0.67114890  0.52281516  0.69554608    -0.23480
C1505       C  0.64863005  0.51943372  0.65865085     0.19530
C1506       C  0.64411609  0.49200060  0.63524653     0.24570
C1507       C  0.66193493  0.46821088  0.65042199    -0.23430
C1508       C  0.68831870  0.47395688  0.67774566     0.19470
F1509       F  0.70776892  0.45213719  0.68724526    -0.13380
F1510       F  0.71553480  0.50570580  0.73497267    -0.15750
F1511       F  0.61998477  0.48790098  0.60450063    -0.15750
F1512       F  0.62899681  0.54149521  0.65054474    -0.13380
C1513       C  0.51865073  0.63281735  0.81094595     0.24630
C1514       C  0.53413291  0.60632926  0.80124031    -0.23480
C1515       C  0.51881025  0.57882673  0.80705248     0.19530
C1516       C  0.48918340  0.57773383  0.82412683     0.24570
C1517       C  0.47399526  0.60394450  0.83525793    -0.23430
C1518       C  0.48851649  0.63160760  0.82747931     0.19470
F1519       F  0.47406558  0.65716146  0.83864244    -0.13380
F1520       F  0.53277425  0.65965425  0.80547088    -0.15750
F1521       F  0.47550807  0.55079288  0.83206153    -0.15750
F1522       F  0.53302914  0.55268430  0.80003195    -0.13380
C1523       C  0.50160047  0.33774277  0.09379042     0.24630
C1524       C  0.52000705  0.35437351  0.12734371    -0.23480
C1525       C  0.50816489  0.36547934  0.17544261     0.19530
C1526       C  0.47746762  0.36399025  0.18583990     0.24570
C1527       C  0.45834011  0.35163484  0.14773830    -0.23430
C1528       C  0.47088678  0.33625678  0.10391855     0.19470
F1529       F  0.45338384  0.32331103  0.06692764    -0.13380
F1530       F  0.51278964  0.32685219  0.04696194    -0.15750
F1531       F  0.46627261  0.37738562  0.23039758    -0.15750
F1532       F  0.52571347  0.38146086  0.20847897    -0.13380
C1533       C  0.59479935  0.40570310  0.84353736     0.24630
C1534       C  0.58601211  0.38910441  0.88881109    -0.23480
C1535       C  0.59082598  0.35812200  0.88862982     0.19530
C1536       C  0.60742889  0.34491695  0.84639543     0.24570
C1537       C  0.61937014  0.36259503  0.80403396    -0.23430
C1538       C  0.61134939  0.39287992  0.80219630     0.19470
F1539       F  0.62045512  0.41091955  0.76115659    -0.13380
F1540       F  0.58990446  0.43541826  0.84181126    -0.15750
F1541       F  0.61370241  0.31556158  0.84911344    -0.15750
F1542       F  0.58234226  0.34131236  0.93184331    -0.13380
C1543       C  0.63371072  0.52097888  0.97803159     0.24630
C1544       C  0.60456960  0.50897672  0.98780367    -0.23480
C1545       C  0.58049737  0.52667314  0.97369680     0.19530
C1546       C  0.58537482  0.55380873  0.94608083     0.24570
C1547       C  0.61437936  0.56388988  0.93090809    -0.23430
C1548       C  0.63843375  0.54789348  0.94974067     0.19470
F1549       F  0.66662262  0.55621128  0.93460848    -0.13380
F1550       F  0.65803668  0.50546958  0.99135195    -0.15750
F1551       F  0.56150883  0.56842016  0.92785824    -0.15750
F1552       F  0.55211520  0.51688320  0.98332714    -0.13380
C1553       C  0.59971730  0.23499472  0.06126401     0.24630
C1554       C  0.62483213  0.21774892  0.05077080    -0.23480
C1555       C  0.64967533  0.23101766  0.02423973     0.19530
C1556       C  0.65049355  0.26152013  0.01246335     0.24570
C1557       C  0.62641587  0.27966270  0.02752214    -0.23430
C1558       C  0.60033262  0.26559018  0.04938182     0.19470
F1559       F  0.57593607  0.28163642  0.06239935    -0.13380
F1560       F  0.57559941  0.22280757  0.08756837    -0.15750
F1561       F  0.67595564  0.27349677  0.99041683    -0.15750
F1562       F  0.67448566  0.21491330  0.01461806    -0.13380
C1563       C  0.96656676  0.37750677  0.77141870     0.24630
C1564       C  0.95518613  0.36311102  0.81757076    -0.23480
C1565       C  0.97381054  0.34544211  0.84781203     0.19530
C1566       C  0.00432672  0.34559087  0.83664990     0.24570
C1567       C  0.01656712  0.36394215  0.79541305    -0.23430
C1568       C  0.99719817  0.37791019  0.76021430     0.19470
F1569       F  0.00803102  0.39417006  0.71786589    -0.13380
F1570       F  0.94863955  0.39441729  0.74146026    -0.15750
F1571       F  0.02194760  0.33072569  0.87047156    -0.15750
F1572       F  0.96295272  0.33124784  0.89251550    -0.13380
C1573       C  0.72466173  0.45602115  0.00884448     0.24630
C1574       C  0.70576285  0.44974094  0.96677341    -0.23480
C1575       C  0.71741440  0.44852838  0.91448844     0.19530
C1576       C  0.74667685  0.43998251  0.90786345     0.24570
C1577       C  0.76348991  0.43601548  0.95353020    -0.23430
C1578       C  0.75418178  0.44818901  0.00259079     0.19470
F1579       F  0.77134513  0.44673647  0.04630232    -0.13380
F1580       F  0.71317191  0.46081424  0.05879049    -0.15750
F1581       F  0.75686794  0.43103294  0.85906383    -0.15750
F1582       F  0.69903065  0.44632767  0.87249260    -0.13380
C1583       C  0.84193841  0.25519589  0.92757763     0.24630
C1584       C  0.85267130  0.27716822  0.89115327    -0.23480
C1585       C  0.86517548  0.26817974  0.84157301     0.19530
C1586       C  0.86471743  0.23829063  0.82713798     0.24570
C1587       C  0.85225237  0.21665883  0.86204500    -0.23430
C1588       C  0.84194594  0.22509508  0.91320069     0.19470
F1589       F  0.82964636  0.20452291  0.94749861    -0.13380
F1590       F  0.83042079  0.26288383  0.97623300    -0.15750
F1591       F  0.87519781  0.23059304  0.77773534    -0.15750
F1592       F  0.87582285  0.28843581  0.80502203    -0.13380
C1593       C  0.78990918  0.33632827  0.74763171     0.24630
C1594       C  0.80005491  0.36386565  0.76728958    -0.23480
C1595       C  0.78470515  0.38955435  0.75334003     0.19530
C1596       C  0.75786702  0.38731768  0.72577785     0.24570
C1597       C  0.74592333  0.35933249  0.71133057    -0.23430
C1598       C  0.76325907  0.33405880  0.72003752     0.19470
F1599       F  0.75342687  0.30669282  0.70501797    -0.13380
F1600       F  0.80410382  0.31102788  0.76068779    -0.15750
F1601       F  0.74213474  0.41223353  0.71853601    -0.15750
F1602       F  0.79373971  0.41643755  0.77203904    -0.13380
C1603       C  0.82113667  0.24103212  0.39367530     0.24630
C1604       C  0.84828757  0.25552361  0.38060247    -0.23480
C1605       C  0.87493838  0.24044736  0.38675743     0.19530
C1606       C  0.87428046  0.21039485  0.40211903     0.24570
C1607       C  0.84686520  0.19513469  0.41173498    -0.23430
C1608       C  0.82037061  0.21122318  0.40960680     0.19470
F1609       F  0.79347306  0.19755848  0.41830029    -0.13380
F1610       F  0.79511735  0.25538475  0.38792411    -0.15750
F1611       F  0.90038305  0.19589838  0.40516893    -0.15750
F1612       F  0.90138701  0.25415203  0.37416618    -0.13380
C1613       C  0.85566359  0.39054540  0.15110483     0.24630
C1614       C  0.84912382  0.35962292  0.15278931    -0.23480
C1615       C  0.86113990  0.34202731  0.11124140     0.19530
C1616       C  0.87661939  0.35558665  0.06701085     0.24570
C1617       C  0.88058363  0.38685977  0.06414486    -0.23430
C1618       C  0.87118064  0.40374982  0.10799015     0.19470
F1619       F  0.87478980  0.43383001  0.10698294    -0.13380
F1620       F  0.84612014  0.40875681  0.19057448    -0.15750
F1621       F  0.88541579  0.33845857  0.02513248    -0.15750
F1622       F  0.85611403  0.31217663  0.11141730    -0.13380
C1623       C  0.70481813  0.33288907  0.22672472     0.24630
C1624       C  0.72634832  0.35555755  0.23431139    -0.23480
C1625       C  0.72178834  0.38359260  0.21074605     0.19530
C1626       C  0.69746091  0.38829723  0.17794249     0.24570
C1627       C  0.67663920  0.36532419  0.16837392    -0.23430
C1628       C  0.68018006  0.33777698  0.19429774     0.19470
F1629       F  0.66126385  0.31473040  0.18418198    -0.13380
F1630       F  0.70831316  0.30559169  0.24877159    -0.15750
F1631       F  0.69596657  0.41445225  0.15085376    -0.15750
F1632       F  0.74262464  0.40562594  0.21473275    -0.13380
C1633       C  0.96234600  0.34642843  0.35813975     0.24630
C1634       C  0.94956236  0.36176007  0.31556899    -0.23480
C1635       C  0.96866684  0.37508240  0.27608556     0.19530
C1636       C  0.99948275  0.37621305  0.28263331     0.24570
C1637       C  0.01173918  0.36398307  0.32843795    -0.23430
C1638       C  0.99317367  0.34778851  0.36467949     0.19470
F1639       F  0.00462681  0.33587326  0.40943726    -0.13380
F1640       F  0.94495773  0.33273726  0.39647782    -0.15750
F1641       F  0.01694839  0.39221069  0.24739860    -0.15750
F1642       F  0.95742690  0.38888394  0.23291215    -0.13380
C1643       C  0.87436935  0.73647474  0.14290024     0.24630
C1644       C  0.86286703  0.71651974  0.10515836    -0.23480
C1645       C  0.85595565  0.72692811  0.05413738     0.19530
C1646       C  0.85801001  0.75727908  0.04260276     0.24570
C1647       C  0.86771031  0.77741668  0.08141474    -0.23430
C1648       C  0.87703964  0.76684145  0.13083589     0.19470
F1649       F  0.88644259  0.78612041  0.16869142    -0.13380
F1650       F  0.88173570  0.72670514  0.19213916    -0.15750
F1651       F  0.84868293  0.76731721  0.99472717    -0.15750
F1652       F  0.84448904  0.70814297  0.01733365    -0.13380
C1653       C  0.84843407  0.49153439  0.19046522     0.24630
C1654       C  0.82201965  0.50086286  0.16794330    -0.23480
C1655       C  0.79440148  0.48950446  0.18640115     0.19530
C1656       C  0.79305573  0.47045169  0.22984280     0.24570
C1657       C  0.81937791  0.46213540  0.25397914    -0.23430
C1658       C  0.84709100  0.47255892  0.23403692     0.19470
F1659       F  0.87286056  0.46338006  0.25516917    -0.13380
F1660       F  0.87530056  0.50292024  0.17357326    -0.15750
F1661       F  0.76617342  0.45995941  0.24840876    -0.15750
F1662       F  0.76876226  0.49888574  0.16501040    -0.13380
C1663       C  0.97262021  0.59190590  0.15287673     0.24630
C1664       C  0.95211750  0.61232391  0.13303258    -0.23480
C1665       C  0.96310103  0.63685694  0.10232195     0.19530
C1666       C  0.99315779  0.63871735  0.08648036     0.24570
C1667       C  0.01263402  0.61668636  0.10230747    -0.23430
C1668       C  0.00257563  0.59410531  0.13738113     0.19470
F1669       F  0.02132966  0.57253492  0.15270509    -0.13380
F1670       F  0.96356749  0.56845404  0.18407750    -0.15750
F1671       F  0.00289379  0.66098358  0.05316208    -0.15750
F1672       F  0.94458351  0.65795696  0.08439733    -0.13380
C1673       C  0.83716254  0.54788971  0.98652641     0.24630
C1674       C  0.86270071  0.56640256  0.98637823    -0.23480
C1675       C  0.88849952  0.55629722  0.95914579     0.19530
C1676       C  0.89053553  0.52661490  0.94235558     0.24570
C1677       C  0.86629209  0.50668148  0.94991813    -0.23430
C1678       C  0.83893576  0.51826144  0.96889548     0.19470
F1679       F  0.81455122  0.50021020  0.97555595    -0.13380
F1680       F  0.81180812  0.55679241  0.01196484    -0.15750
F1681       F  0.91681312  0.51701784  0.92146942    -0.15750
F1682       F  0.91348107  0.57376442  0.95729514    -0.13380
C1683       C  0.99476420  0.57198278  0.62956164     0.24630
C1684       C  0.98173269  0.59618924  0.60467280    -0.23480
C1685       C  0.99862138  0.62240258  0.59569645     0.19530
C1686       C  0.02885302  0.62369312  0.60852319     0.24570
C1687       C  0.04266538  0.59864893  0.63059608    -0.23430
C1688       C  0.02468317  0.57318631  0.64296696     0.19470
F1689       F  0.03622477  0.54851441  0.66524168    -0.13380
F1690       F  0.97876858  0.54641612  0.63846023    -0.15750
F1691       F  0.04476708  0.64899204  0.59706410    -0.15750
F1692       F  0.98632679  0.64608835  0.57149216    -0.13380
C1693       C  0.86312177  0.55467609  0.34343689     0.24630
C1694       C  0.88292266  0.57188927  0.37356002    -0.23480
C1695       C  0.88563604  0.60255408  0.36170030     0.19530
C1696       C  0.86706117  0.61591641  0.32404634     0.24570
C1697       C  0.84536713  0.59889332  0.29719331    -0.23430
C1698       C  0.84457539  0.56779618  0.30647541     0.19470
F1699       F  0.82526415  0.54965567  0.28077896    -0.13380
F1700       F  0.86003304  0.52498410  0.35300671    -0.15750
F1701       F  0.86985247  0.64563983  0.31509102    -0.15750
F1702       F  0.90470960  0.62003106  0.38926302    -0.13380
C1703       C  0.83743266  0.45829451  0.49079102     0.24630
C1704       C  0.86518077  0.46719083  0.51095206    -0.23480
C1705       C  0.88728359  0.44547677  0.51407252     0.19530
C1706       C  0.88303501  0.41702921  0.49197866     0.24570
C1707       C  0.85696088  0.40966249  0.46456790    -0.23430
C1708       C  0.83342994  0.42991776  0.46766643     0.19470
F1709       F  0.80816022  0.42410262  0.44088885    -0.13380
F1710       F  0.81531346  0.47819469  0.48750202    -0.15750
F1711       F  0.90639807  0.39834773  0.48957079    -0.15750
F1712       F  0.91408826  0.45254364  0.53468638    -0.13380
C1713       C  0.88317491  0.70404709  0.62480175     0.24630
C1714       C  0.88744692  0.69689070  0.57074396    -0.23480
C1715       C  0.88721094  0.71950580  0.53192717     0.19530
C1716       C  0.88039156  0.74862279  0.54658980     0.24570
C1717       C  0.87307801  0.75526530  0.60028768    -0.23430
C1718       C  0.87599097  0.73300052  0.63958080     0.19470
F1719       F  0.87020564  0.73877320  0.69205959    -0.13380
F1720       F  0.88271174  0.68228117  0.66266854    -0.15750
F1721       F  0.87808634  0.76949421  0.50760069    -0.15750
F1722       F  0.89060336  0.71275053  0.47926378    -0.13380
C1723       C  0.80174055  0.59457938  0.68702949     0.24630
C1724       C  0.81648594  0.61770125  0.65867030    -0.23480
C1725       C  0.80469605  0.64652413  0.66241739     0.19530
C1726       C  0.77784804  0.65175759  0.69060715     0.24570
C1727       C  0.76189825  0.62828605  0.71641106    -0.23430
C1728       C  0.77505092  0.59978470  0.71612961     0.19470
F1729       F  0.76109599  0.57620367  0.74070713    -0.13380
F1730       F  0.81175051  0.56638268  0.68274351    -0.15750
F1731       F  0.76667738  0.67958354  0.68968147    -0.15750
F1732       F  0.81770882  0.66932820  0.63411140    -0.13380
C1733       C  0.48414260  0.61585107  0.37173472     0.24630
C1734       C  0.50444630  0.60058951  0.33871798    -0.23480
C1735       C  0.49470436  0.58864738  0.29030253     0.19530
C1736       C  0.46461169  0.58994071  0.27715872     0.24570
C1737       C  0.44381658  0.60377075  0.31177018    -0.23430
C1738       C  0.45426062  0.61779894  0.35813689     0.19470
F1739       F  0.43519243  0.63154398  0.39260865    -0.13380
F1740       F  0.49308379  0.62804291  0.41831680    -0.15750
F1741       F  0.45566092  0.57672784  0.23148741    -0.15750
F1742       F  0.51385497  0.57373428  0.25770600    -0.13380
C1743       C  0.61080135  0.62807716  0.62496023     0.24630
C1744       C  0.64206722  0.63253824  0.62428083    -0.23480
C1745       C  0.65868367  0.62044786  0.58188525     0.19530
C1746       C  0.64532373  0.60238262  0.54393926     0.24570
C1747       C  0.61439925  0.59572365  0.54598734    -0.23430
C1748       C  0.59706283  0.60995422  0.58593758     0.19470
F1749       F  0.56721364  0.60502008  0.58919024    -0.13380
F1750       F  0.59382749  0.63931770  0.66551734    -0.15750
F1751       F  0.66338862  0.59105677  0.50534287    -0.15750
F1752       F  0.68869614  0.62456020  0.57914993    -0.13380
C1753       C  0.58641600  0.41854949  0.47010081     0.24630
C1754       C  0.61205296  0.40932372  0.49646985    -0.23480
C1755       C  0.63693109  0.42886163  0.49566402     0.19530
C1756       C  0.63503506  0.45789620  0.47439737     0.24570
C1757       C  0.60808163  0.46812269  0.45408019    -0.23430
C1758       C  0.58423601  0.44768330  0.45025834     0.19470
F1759       F  0.55819002  0.45633888  0.42955664    -0.13380
F1760       F  0.56181432  0.40054159  0.47043212    -0.15750
F1761       F  0.65864712  0.47691993  0.47857074    -0.15750
F1762       F  0.66171861  0.42134023  0.52189216    -0.13380
C1763       C  0.73098054  0.59768250  0.42534088     0.24630
C1764       C  0.71814404  0.56953043  0.41825882    -0.23480
C1765       C  0.73342431  0.54367971  0.43041217     0.19530
C1766       C  0.76255401  0.54612972  0.44708727     0.24570
C1767       C  0.77580666  0.57446548  0.45217627    -0.23430
C1768       C  0.75952242  0.60019933  0.44248551     0.19470
F1769       F  0.77076687  0.62797732  0.45130180    -0.13380
F1770       F  0.71541989  0.62289474  0.41762048    -0.15750
F1771       F  0.77774737  0.52111056  0.45748571    -0.15750
F1772       F  0.72037574  0.51640239  0.42519257    -0.13380
C1773       C  0.60691092  0.73407252  0.29710674     0.24630
C1774       C  0.61609767  0.75537346  0.33443699    -0.23480
C1775       C  0.62026597  0.74658261  0.38765066     0.19530
C1776       C  0.61794010  0.71648553  0.40205062     0.24570
C1777       C  0.61068268  0.69491406  0.36373116    -0.23430
C1778       C  0.60389863  0.70413875  0.31175731     0.19470
F1779       F  0.59704994  0.68389857  0.27367113    -0.13380
F1780       F  0.60202390  0.74208573  0.24573103    -0.15750
F1781       F  0.62419463  0.70823850  0.45273400    -0.15750
F1782       F  0.62900388  0.76674027  0.42457530    -0.13380
C1783       C  0.71051264  0.57928077  0.21669763     0.24630
C1784       C  0.72169792  0.60632699  0.19451931    -0.23480
C1785       C  0.70165761  0.62950183  0.18746890     0.19530
C1786       C  0.67195436  0.62672201  0.20621335     0.24570
C1787       C  0.66170148  0.60125551  0.23511490    -0.23430
C1788       C  0.68087505  0.57682867  0.23702906     0.19470
F1789       F  0.67233275  0.55208589  0.26520636    -0.13380
F1790       F  0.72909289  0.55624631  0.22376653    -0.15750
F1791       F  0.65439511  0.65089886  0.20366445    -0.15750
F1792       F  0.71128845  0.65563539  0.16505577    -0.13380
loop_ 
_geom_bond_atom_site_label_1 
_geom_bond_atom_site_label_2 
_geom_bond_distance 
_geom_bond_site_symmetry_2 
_ccdc_geom_bond_type 
O1           Ni7   1.902       .  S
O1           C22   1.263       .  A
O2          Ni25   1.901       .  S
O2           C11   1.280       .  A
O3           Ni7   1.851       .  S
O3          Ni25   1.856       .  S
O3          Ni19   1.935       .  S
O3           H26   0.958       .  S
C4           O21   1.278       .  A
C4           O13   1.296       .  A
C4         C1757   1.498       .  S
O5          Ni24   1.962       .  S
O5           C11   1.289       .  A
O6          Ni24   1.969       .  S
O6            C8   1.274       .  A
Ni7          O10   1.912       .  S
Ni7          O12   1.881       .  S
C8           O18   1.264       .  A
C8         C1747   1.514       .  S
O9          Ni25   1.954       .  S
O9           C15   1.290       .  A
O10          C15   1.281       .  A
C11        C1734   1.481       .  S
O12          C14   1.254       .  A
O13         Ni24   1.987       .  S
C14          O20   1.290       .  A
C14        C1787   1.492       .  S
C15        C1777   1.475       .  S
H16          O17   0.967       .  S
O17         Ni25   1.912       .  S
O17         Ni19   1.877       .  S
O17         Ni24   1.891       .  S
O18         Ni19   1.933       .  S
Ni19         O23   1.879       .  S
Ni19         O21   1.906       .  S
O20         Ni25   1.998       .  S
C22          O23   1.261       .  A
C22        C1764   1.427       .  S
O27         Ni33   1.882       .  S
O27          C48   1.257       .  A
O28         Ni51   1.893       .  S
O28          C37   1.279       .  A
O29         Ni33   1.842       .  S
O29         Ni51   1.854       .  S
O29         Ni45   1.979       .  S
O29          H52   0.954       .  S
C30          O47   1.289       .  A
C30          O39   1.294       .  A
C30        C1704   1.508       .  S
O31         Ni50   1.958       .  S
O31          C37   1.289       .  A
O32         Ni50   1.976       .  S
O32          C34   1.278       .  A
Ni33         O36   1.896       .  S
Ni33         O38   1.893       .  S
C34          O44   1.256       .  A
C34        C1694   1.494       .  S
O35         Ni51   1.925       .  S
O35          C41   1.267       .  A
O36          C41   1.261       .  A
C37        C1684   1.473       .  S
O38          C40   1.281       .  A
O39         Ni50   1.974       .  S
C40          O46   1.309       .  A
C40        C1724   1.487       .  S
C41        C1714   1.460       .  S
H42          O43   0.967       .  S
O43         Ni51   1.906       .  S
O43         Ni45   1.858       .  S
O43         Ni50   1.881       .  S
O44         Ni45   1.911       .  S
Ni45         O49   1.896       .  S
Ni45         O47   1.934       .  S
O46         Ni51   2.008       .  S
C48          O49   1.262       .  A
C48        C1767   1.441       .  S
O53         Ni59   1.909       .  S
O53          C74   1.267       .  A
O54         Ni77   1.885       .  S
O54          C63   1.275       .  A
O55         Ni59   1.862       .  S
O55         Ni77   1.856       .  S
O55         Ni71   1.930       .  S
O55          H78   0.957       .  S
C56          O73   1.279       .  A
C56          O65   1.294       .  A
C56        C1784   1.501       .  S
O57         Ni76   1.955       .  S
O57          C63   1.285       .  A
O58         Ni76   1.951       .  S
O58          C60   1.271       .  A
Ni59         O62   1.910       .  S
Ni59         O64   1.885       .  S
C60          O70   1.266       .  A
C60        C1697   1.512       .  S
O61         Ni77   1.944       .  S
O61          C67   1.286       .  A
O62          C67   1.280       .  A
C63        C1644   1.467       .  S
O64          C66   1.255       .  A
O65         Ni76   1.984       .  S
C66          O72   1.286       .  A
C66        C1674   1.480   1_554  S
C67        C1664   1.485       .  S
H68          O69   0.967       .  S
O69         Ni77   1.911       .  S
O69         Ni71   1.872       .  S
O69         Ni76   1.891       .  S
O70         Ni71   1.936       .  S
Ni71         O75   1.854       .  S
Ni71         O73   1.915       .  S
O72         Ni77   1.982       .  S
C74          O75   1.263       .  A
C74        C1654   1.426       .  S
O79         Ni85   1.907       .  S
O79         C100   1.266       .  A
O80        Ni103   1.902       .  S
O80          C89   1.278       .  A
O81         Ni85   1.860       .  S
O81        Ni103   1.855       .  S
O81         Ni97   1.937       .  S
O81         H104   0.957       .  S
C82          O99   1.278       .  A
C82          O91   1.291       .  A
C82        C1624   1.500       .  S
O83        Ni102   1.945       .  S
O83          C89   1.284       .  A
O84        Ni102   1.962       .  S
O84          C86   1.274       .  A
Ni85         O88   1.913       .  S
Ni85         O90   1.884       .  S
C86          O96   1.265       .  A
C86        C1614   1.507       .  S
O87        Ni103   1.957       .  S
O87          C93   1.290       .  A
O88          C93   1.280       .  A
C89        C1604   1.468       .  S
O90          C92   1.261       .  A
O91        Ni102   1.982       .  S
C92          O98   1.292       .  A
C92        C1707   1.488       .  S
C93        C1634   1.490       .  S
H94          O95   0.967       .  S
O95        Ni103   1.930       .  S
O95         Ni97   1.866       .  S
O95        Ni102   1.904       .  S
O96         Ni97   1.934       .  S
Ni97        O101   1.854       .  S
Ni97         O99   1.911       .  S
O98        Ni103   1.989       .  S
C100        O101   1.258       .  A
C100       C1657   1.430       .  S
O105       Ni111   1.933       .  S
O105        C126   1.274       .  A
O106       Ni129   1.895       .  S
O106        C115   1.272       .  A
O107       Ni111   1.879       .  S
O107       Ni129   1.875       .  S
O107       Ni123   1.903       .  S
O107        H130   0.961       .  S
C108        O125   1.271       .  A
C108        O117   1.293       .  A
C108       C1677   1.500       .  S
O109       Ni128   1.934       .  S
O109        C115   1.280       .  A
O110       Ni128   1.952       .  S
O110        C112   1.265   1_556  A
Ni111       O114   1.927       .  S
Ni111       O116   1.893       .  S
C112        O122   1.258   1_554  A
C112       C1617   1.487       .  S
O113       Ni129   1.920       .  S
O113        C119   1.279       .  A
O114        C119   1.281       .  A
C115       C1564   1.458       .  S
O116        C118   1.266       .  A
O117       Ni128   1.985       .  S
C118        O124   1.284       .  A
C118       C1594   1.482       .  S
C119       C1584   1.482       .  S
H120        O121   0.967       .  S
O121       Ni129   1.907       .  S
O121       Ni123   1.877       .  S
O121       Ni128   1.897       .  S
O122       Ni123   1.915       .  S
Ni123       O127   1.845       .  S
Ni123       O125   1.895       .  S
O124       Ni129   1.966       .  S
C126        O127   1.245       .  A
C126       C1577   1.436       .  S
O131       Ni137   1.944       .  S
O131        C152   1.278   1_554  A
O132       Ni155   1.906       .  S
O132        C141   1.274       .  A
O133       Ni137   1.880       .  S
O133       Ni155   1.884       .  S
O133       Ni149   1.903       .  S
O133        H156   0.959   1_554  S
C134        O151   1.263       .  A
C134        O143   1.290       .  A
C134       C1544   1.513   1_554  S
O135       Ni154   1.926       .  S
O135        C141   1.278       .  A
O136       Ni154   1.942   1_556  S
O136        C138   1.264       .  A
Ni137       O140   1.939       .  S
Ni137       O142   1.890       .  S
C138        O148   1.261       .  A
C138       C1534   1.482       .  S
O139       Ni155   1.927       .  S
O139        C145   1.279       .  A
O140        C145   1.283       .  A
C141       C1524   1.462       .  S
O142        C144   1.266       .  A
O143       Ni154   2.000       .  S
C144        O150   1.287       .  A
C144       C1627   1.487       .  S
C145       C1557   1.501       .  S
H146        O147   0.966       .  S
O147       Ni155   1.931       .  S
O147       Ni149   1.881       .  S
O147       Ni154   1.921       .  S
O148       Ni149   1.922   1_556  S
Ni149       O153   1.846   1_554  S
Ni149       O151   1.892       .  S
O150       Ni155   1.973       .  S
C152        O153   1.241       .  A
C152       C1574   1.440       .  S
O157       Ni163   1.903       .  S
O157        C178   1.264       .  A
O158       Ni181   1.923       .  S
O158        C167   1.282       .  A
O159       Ni163   1.860       .  S
O159       Ni181   1.882       .  S
O159       Ni175   1.929       .  S
O159        H182   0.957       .  S
C160        O177   1.269       .  A
C160        O169   1.293       .  A
C160       C1727   1.510       .  S
O161       Ni180   1.933       .  S
O161        C167   1.279       .  A
O162       Ni180   1.956       .  S
O162        C164   1.267       .  A
Ni163       O166   1.907       .  S
Ni163       O168   1.880       .  S
C164        O174   1.260       .  A
C164       C1744   1.495       .  S
O165       Ni181   1.942       .  S
O165        C171   1.285       .  A
O166        C171   1.278       .  A
C167       C1494   1.476       .  S
O168        C170   1.264       .  A
O169       Ni180   1.994       .  S
C170        O176   1.293       .  A
C170       C1547   1.487       .  S
C171       C1514   1.477       .  S
H172        O173   0.967       .  S
O173       Ni181   1.928       .  S
O173       Ni175   1.880       .  S
O173       Ni180   1.912       .  S
O174       Ni175   1.928       .  S
Ni175       O179   1.862       .  S
Ni175       O177   1.895       .  S
O176       Ni181   1.983       .  S
C178        O179   1.247       .  A
C178       C1504   1.422       .  S
O183       Ni189   1.916       .  S
O183        C204   1.272       .  A
O184       Ni207   1.901       .  S
O184        C193   1.278       .  A
O185       Ni189   1.850       .  S
O185       Ni207   1.856       .  S
O185       Ni201   1.923       .  S
O185        H208   0.956       .  S
C186        O203   1.286       .  A
C186        O195   1.291       .  A
C186       C1597   1.502       .  S
O187       Ni206   1.937       .  S
O187        C193   1.282       .  A
O188       Ni206   1.959       .  S
O188        C190   1.273       .  A
Ni189       O192   1.912       .  S
Ni189       O194   1.887       .  S
C190        O200   1.263       .  A
C190       C1537   1.501       .  S
O191       Ni207   1.948       .  S
O191        C197   1.287       .  A
O192        C197   1.279       .  A
C193       C1474   1.469       .  S
O194        C196   1.258       .  A
O195       Ni206   1.963       .  S
C196        O202   1.290       .  A
C196       C1754   1.488       .  S
C197       C1484   1.472       .  S
H198        O199   0.967       .  S
O199       Ni207   1.919       .  S
O199       Ni201   1.868       .  S
O199       Ni206   1.889       .  S
O200       Ni201   1.926       .  S
Ni201       O205   1.871       .  S
Ni201       O203   1.929       .  S
O202       Ni207   1.989       .  S
C204        O205   1.269       .  A
C204       C1507   1.454       .  S
O209       Ni215   1.933       .  S
O209        C230   1.278       .  A
O210       Ni233   1.862       .  S
O210        C219   1.247       .  A
O211       Ni215   1.919       .  S
O211       Ni233   1.880       .  S
O211       Ni227   1.933       .  S
O211        H234   0.967       .  S
C212        O229   1.286       .  A
C212        O221   1.278       .  A
C212       C1457   1.501       .  S
O213       Ni232   1.905       .  S
O213        C219   1.266       .  A
O214       Ni232   1.883       .  S
O214        C216   1.266       .  A
Ni215       O218   1.993       .  S
Ni215       O220   1.957       .  S
C216        O226   1.294       .  A
C216       C1464   1.489   1_554  S
O217       Ni233   1.906       .  S
O217        C223   1.272       .  A
O218        C223   1.292       .  A
C219       C1447   1.427       .  S
O220        C222   1.267       .  A
O221       Ni232   1.916       .  S
C222        O228   1.257       .  A
C222       C1427   1.490       .  S
C223       C1437   1.514       .  S
H224        O225   0.959       .  S
O225       Ni233   1.942       .  S
O225       Ni227   1.887       .  S
O225       Ni232   1.871       .  S
O226       Ni227   1.983       .  S
Ni227       O231   1.925       .  S
Ni227       O229   1.950       .  S
O228       Ni233   1.917       .  S
C230        O231   1.282       .  A
C230       C1554   1.476       .  S
O235       Ni241   1.958       .  S
O235        C256   1.288       .  A
O236       Ni259   1.869       .  S
O236        C245   1.270       .  A
O237       Ni241   1.887       .  S
O237       Ni259   1.870       .  S
O237       Ni253   1.904       .  S
O237        H260   0.967       .  S
C238        O255   1.282       .  A
C238        O247   1.280       .  A
C238       C1404   1.475       .  S
O239       Ni258   1.922       .  S
O239        C245   1.274       .  A
O240       Ni258   1.887       .  S
O240        C242   1.256       .  A
Ni241       O244   1.973       .  S
Ni241       O246   1.959       .  S
C242        O252   1.290       .  A
C242       C1414   1.487       .  S
O243       Ni259   1.924       .  S
O243        C249   1.285       .  A
O244        C249   1.293       .  A
C245       C1444   1.456       .  S
O246        C248   1.274       .  A
O247       Ni258   1.919       .  S
C248        O254   1.263       .  A
C248       C1384   1.504       .  S
C249       C1397   1.500       .  S
H250        O251   0.957       .  S
O251       Ni259   1.920       .  S
O251       Ni253   1.857       .  S
O251       Ni258   1.857       .  S
O252       Ni253   1.990       .  S
Ni253       O257   1.887       .  S
Ni253       O255   1.933       .  S
O254       Ni259   1.926       .  S
C256        O257   1.275       .  A
C256       C1774   1.474       .  S
O261       Ni267   1.936       .  S
O261        C282   1.280       .  A
O262       Ni285   1.839       .  S
O262        C271   1.241       .  A
O263       Ni267   1.916       .  S
O263       Ni285   1.878       .  S
O263       Ni279   1.918       .  S
O263        H286   0.966       .  S
C264        O281   1.278       .  A
C264        O273   1.282       .  A
C264       C1607   1.485       .  S
O265       Ni284   1.940       .  S
O265        C271   1.276       .  A
O266       Ni284   1.884       .  S
O266        C268   1.265       .  A
Ni267       O270   1.999       .  S
Ni267       O272   1.956       .  S
C268        O278   1.291       .  A
C268       C1434   1.489       .  S
O269       Ni285   1.891       .  S
O269        C275   1.266   1_545  A
O270        C275   1.293   1_545  A
C271       C1374   1.432       .  S
O272        C274   1.266       .  A
O273       Ni284   1.933       .  S
C274        O280   1.257       .  A
C274       C1354   1.495       .  S
C275       C1364   1.505       .  S
H276        O277   0.960       .  S
O277       Ni285   1.909       .  S
O277       Ni279   1.885       .  S
O277       Ni284   1.876       .  S
O278       Ni279   1.980       .  S
Ni279       O283   1.906       .  S
Ni279       O281   1.918       .  S
O280       Ni285   1.923       .  S
C282        O283   1.276       .  A
C282       C1347   1.468       .  S
O287       Ni293   1.944       .  S
O287        C308   1.284       .  A
O288       Ni311   1.834       .  S
O288        C297   1.245       .  A
O289       Ni293   1.911       .  S
O289       Ni311   1.872       .  S
O289       Ni305   1.914       .  S
O289        H312   0.967       .  S
C290        O307   1.280       .  A
C290        O299   1.282       .  A
C290       C1477   1.474       .  S
O291       Ni310   1.940       .  S
O291        C297   1.275       .  A
O292       Ni310   1.872       .  S
O292        C294   1.262       .  A
Ni293       O296   1.997       .  S
Ni293       O298   1.957       .  S
C294        O304   1.292       .  A
C294       C1334   1.482       .  S
O295       Ni311   1.886       .  S
O295        C301   1.266       .  A
O296        C301   1.294       .  A
C297       C1377   1.442       .  S
O298        C300   1.268       .  A
O299       Ni310   1.927       .  S
C300        O306   1.262       .  A
C300       C1424   1.510       .  S
C301       C1417   1.499   1_545  S
H302        O303   0.957       .  S
O303       Ni311   1.906       .  S
O303       Ni305   1.871       .  S
O303       Ni310   1.870       .  S
O304       Ni305   1.982       .  S
Ni305       O309   1.901       .  S
Ni305       O307   1.923       .  S
O306       Ni311   1.932       .  S
C308        O309   1.277       .  A
C308       C1324   1.471       .  S
O313       Ni319   1.939       .  S
O313        C334   1.282       .  A
O314       Ni337   1.845       .  S
O314        C323   1.248   1_554  A
O315       Ni319   1.888       .  S
O315       Ni337   1.850       .  S
O315       Ni331   1.892       .  S
O315        H338   0.967       .  S
C316        O333   1.262       .  A
C316        O325   1.263       .  A
C316       C1647   1.461       .  S
O317       Ni336   1.901   1_556  S
O317        C323   1.265       .  A
O318       Ni336   1.871       .  S
O318        C320   1.272       .  A
Ni319       O322   1.978       .  S
Ni319       O324   1.953   1_554  S
C320        O330   1.307       .  A
C320       C1394   1.484       .  S
O321       Ni337   1.912       .  S
O321        C327   1.278       .  A
O322        C327   1.292       .  A
C323       C1317   1.414       .  S
O324        C326   1.270       .  A
O325       Ni336   1.910       .  S
C326        O332   1.262       .  A
C326       C1297   1.493       .  S
C327       C1304   1.498   1_565  S
H328        O329   0.960   1_556  S
O329       Ni337   1.962       .  S
O329       Ni331   1.889       .  S
O329       Ni336   1.881       .  S
O330       Ni331   2.013       .  S
Ni331       O335   1.909       .  S
Ni331       O333   1.910       .  S
O332       Ni337   1.926   1_556  S
C334        O335   1.280       .  A
C334       C1287   1.473       .  S
O339       Ni345   1.940       .  S
O339        C360   1.283       .  A
O340       Ni363   1.859       .  S
O340        C349   1.253       .  A
O341       Ni345   1.908       .  S
O341       Ni363   1.880       .  S
O341       Ni357   1.934       .  S
O341        H364   0.966       .  S
C342        O359   1.287       .  A
C342        O351   1.283       .  A
C342       C1497   1.492       .  S
O343       Ni362   1.916       .  S
O343        C349   1.266       .  A
O344       Ni362   1.873       .  S
O344        C346   1.259       .  A
Ni345       O348   1.996       .  S
Ni345       O350   1.937       .  S
C346        O356   1.292       .  A
C346       C1274   1.486       .  S
O347       Ni363   1.899       .  S
O347        C353   1.268       .  A
O348        C353   1.291       .  A
C349       C1314   1.424       .  S
O350        C352   1.267       .  A
O351       Ni362   1.924       .  S
C352        O358   1.266       .  A
C352       C1387   1.484   1_556  S
C353       C1467   1.511   1_565  S
H354        O355   0.960       .  S
O355       Ni363   1.920       .  S
O355       Ni357   1.861       .  S
O355       Ni362   1.854       .  S
O356       Ni357   1.989       .  S
Ni357       O361   1.904       .  S
Ni357       O359   1.947       .  S
O358       Ni363   1.935       .  S
C360        O361   1.278       .  A
C360       C1264   1.469       .  S
O365       Ni371   1.949       .  S
O365        C386   1.285       .  A
O366       Ni389   1.862       .  S
O366        C375   1.261       .  A
O367       Ni371   1.895       .  S
O367       Ni389   1.870       .  S
O367       Ni383   1.917       .  S
O367        H390   0.967       .  S
C368        O385   1.287       .  A
C368        O377   1.280       .  A
C368       C1254   1.477       .  S
O369       Ni388   1.904       .  S
O369        C375   1.265       .  A
O370       Ni388   1.883       .  S
O370        C372   1.259       .  A
Ni371       O374   1.980       .  S
Ni371       O376   1.957       .  S
C372        O382   1.289       .  A
C372       C1307   1.482       .  S
O373       Ni389   1.913       .  S
O373        C379   1.279       .  A
O374        C379   1.293       .  A
C375       C1244   1.429       .  S
O376        C378   1.272       .  A
O377       Ni388   1.914       .  S
C378        O384   1.266       .  A
C378       C1357   1.512       .  S
C379       C1337   1.503       .  S
H380        O381   0.958       .  S
O381       Ni389   1.937       .  S
O381       Ni383   1.857       .  S
O381       Ni388   1.859       .  S
O382       Ni383   1.984       .  S
Ni383       O387   1.896       .  S
Ni383       O385   1.950       .  S
O384       Ni389   1.937       .  S
C386        O387   1.277       .  A
C386       C1587   1.471       .  S
O391       Ni397   1.959       .  S
O391        C412   1.288       .  A
O392       Ni415   1.857       .  S
O392        C401   1.262       .  A
O393       Ni397   1.895       .  S
O393       Ni415   1.870       .  S
O393       Ni409   1.913       .  S
O393        H416   0.967       .  S
C394        O411   1.282       .  A
C394        O403   1.282       .  A
C394       C1234   1.490       .  S
O395       Ni414   1.911       .  S
O395        C401   1.268       .  A
O396       Ni414   1.884       .  S
O396        C398   1.258       .  A
Ni397       O400   1.984       .  S
Ni397       O402   1.960       .  S
C398        O408   1.290       .  A
C398       C1367   1.485       .  S
O399       Ni415   1.919       .  S
O399        C405   1.282       .  A
O400        C405   1.294       .  A
C401       C1247   1.432       .  S
O402        C404   1.273       .  A
O403       Ni414   1.925       .  S
C404        O410   1.262       .  A
C404       C1294   1.511       .  S
C405       C1277   1.509       .  S
H406        O407   0.957       .  S
O407       Ni415   1.940       .  S
O407       Ni409   1.853       .  S
O407       Ni414   1.864       .  S
O408       Ni409   1.987       .  S
Ni409       O413   1.884       .  S
Ni409       O411   1.934       .  S
O410       Ni415   1.930       .  S
C412        O413   1.275       .  A
C412       C1717   1.480       .  S
O417       Ni423   1.900       .  S
O417        C438   1.265       .  A
O418       Ni441   1.904       .  S
O418        C427   1.278       .  A
O419       Ni423   1.861       .  S
O419       Ni441   1.865       .  S
O419       Ni435   1.939       .  S
O419        H442   0.958       .  S
C420        O437   1.278       .  A
C420        O429   1.294       .  A
C420       C1204   1.500       .  S
O421       Ni440   1.941       .  S
O421        C427   1.282       .  A
O422       Ni440   1.963       .  S
O422        C424   1.269       .  A
Ni423       O426   1.915       .  S
Ni423       O428   1.887       .  S
C424        O434   1.259       .  A
C424       C1194   1.498       .  S
O425       Ni441   1.939       .  S
O425        C431   1.283       .  A
O426        C431   1.279       .  A
C427       C1184   1.466       .  S
O428        C430   1.262       .  A
O429       Ni440   1.983       .  S
C430        O436   1.291       .  A
C430       C1227   1.488       .  S
C431       C1327   1.483       .  S
H432        O433   0.967       .  S
O433       Ni441   1.911       .  S
O433       Ni435   1.873       .  S
O433       Ni440   1.891       .  S
O434       Ni435   1.923       .  S
Ni435       O439   1.859       .  S
Ni435       O437   1.908       .  S
O436       Ni441   1.984       .  S
C438        O439   1.254       .  A
C438       C1214   1.418       .  S
O443       Ni449   1.908       .  S
O443        C464   1.268       .  A
O444       Ni467   1.881       .  S
O444        C453   1.271       .  A
O445       Ni449   1.853       .  S
O445       Ni467   1.848       .  S
O445       Ni461   1.912       .  S
O445        H468   0.959       .  S
C446        O463   1.281       .  A
C446        O455   1.290       .  A
C446       C1164   1.501       .  S
O447       Ni466   1.946       .  S
O447        C453   1.284       .  A
O448       Ni466   1.947       .  S
O448        C450   1.270       .  A
Ni449       O452   1.907       .  S
Ni449       O454   1.891       .  S
C450        O460   1.266       .  A
C450       C1157   1.480       .  S
O451       Ni467   1.959       .  S
O451        C457   1.290       .  A
O452        C457   1.279       .  A
C453       C1144   1.455       .  S
O454        C456   1.257       .  A
O455       Ni466   1.980       .  S
C456        O462   1.283       .  A
C456       C1174   1.484       .  S
C457       C1267   1.480       .  S
H458        O459   0.967       .  S
O459       Ni467   1.921       .  S
O459       Ni461   1.875       .  S
O459       Ni466   1.890       .  S
O460       Ni461   1.922       .  S
Ni461       O465   1.865       .  S
Ni461       O463   1.922       .  S
O462       Ni467   1.977       .  S
C464        O465   1.266       .  A
C464       C1217   1.436       .  S
O469       Ni475   1.953       .  S
O469        C490   1.282       .  A
O470       Ni493   1.905       .  S
O470        C479   1.281       .  A
O471       Ni475   1.859       .  S
O471       Ni493   1.863       .  S
O471       Ni487   1.925       .  S
O471        H494   0.956       .  S
C472        O489   1.270       .  A
C472        O481   1.296       .  A
C472       C1114   1.507   1_565  S
O473       Ni492   1.945       .  S
O473        C479   1.285       .  A
O474       Ni492   1.971       .  S
O474        C476   1.270       .  A
Ni475       O478   1.942       .  S
Ni475       O480   1.886       .  S
C476        O486   1.257       .  A
C476       C1104   1.514       .  S
O477       Ni493   1.932       .  S
O477        C483   1.282       .  A
O478        C483   1.284       .  A
C479       C1237   1.468       .  S
O480        C482   1.266       .  A
O481       Ni492   2.002       .  S
C482        O488   1.300       .  A
C482       C1167   1.502       .  S
C483       C1134   1.496       .  S
H484        O485   0.967       .  S
O485       Ni493   1.917       .  S
O485       Ni487   1.856       .  S
O485       Ni492   1.906       .  S
O486       Ni487   1.930       .  S
Ni487       O491   1.827       .  S
Ni487       O489   1.892       .  S
O488       Ni493   2.001       .  S
C490        O491   1.241       .  A
C490       C1124   1.436       .  S
O495       Ni501   1.938       .  S
O495        C516   1.276       .  A
O496       Ni519   1.884       .  S
O496        C505   1.272       .  A
O497       Ni501   1.868       .  S
O497       Ni519   1.863       .  S
O497       Ni513   1.920       .  S
O497        H520   0.956       .  S
C498        O515   1.271       .  A
C498        O507   1.295       .  A
C498       C1224   1.504   1_565  S
O499       Ni518   1.949       .  S
O499        C505   1.285       .  A
O500       Ni518   1.966       .  S
O500        C502   1.270       .  A
Ni501       O504   1.938       .  S
Ni501       O506   1.878       .  S
C502        O512   1.257       .  A
C502       C1154   1.509       .  S
O503       Ni519   1.909       .  S
O503        C509   1.275       .  A
O504        C509   1.282       .  A
C505       C1407   1.461       .  S
O506        C508   1.264       .  A
O507       Ni518   1.996       .  S
C508        O514   1.292       .  A
C508       C1097   1.481       .  S
C509       C1084   1.485       .  S
H510        O511   0.967       .  S
O511       Ni519   1.908       .  S
O511       Ni513   1.863       .  S
O511       Ni518   1.907       .  S
O512       Ni513   1.925       .  S
Ni513       O517   1.827       .  S
Ni513       O515   1.896       .  S
O514       Ni519   1.976       .  S
C516        O517   1.244       .  A
C516       C1127   1.426       .  S
O521       Ni527   1.933       .  S
O521        C542   1.275       .  A
O522       Ni545   1.905       .  S
O522        C531   1.279       .  A
O523       Ni527   1.874       .  S
O523       Ni545   1.870       .  S
O523       Ni539   1.910       .  S
O523        H546   0.959       .  S
C524        O541   1.278       .  A
C524        O533   1.293       .  A
C524       C1067   1.506       .  S
O525       Ni544   1.937       .  S
O525        C531   1.281       .  A
O526       Ni544   1.955       .  S
O526        C528   1.267       .  A
Ni527       O530   1.922       .  S
Ni527       O532   1.893       .  S
C528        O538   1.255       .  A
C528       C1057   1.483       .  S
O529       Ni545   1.933       .  S
O529        C535   1.281       .  A
O530        C535   1.279       .  A
C531       C1044   1.465       .  S
O532        C534   1.264       .  A
O533       Ni544   1.982       .  S
C534        O540   1.292       .  A
C534       C1117   1.492       .  S
C535       C1344   1.487       .  S
H536        O537   0.967       .  S
O537       Ni545   1.913       .  S
O537       Ni539   1.872       .  S
O537       Ni544   1.892       .  S
O538       Ni539   1.909       .  S
Ni539       O543   1.840       .  S
Ni539       O541   1.915       .  S
O540       Ni545   1.984       .  S
C542        O543   1.250       .  A
C542       C1077   1.445       .  S
O547       Ni553   1.916       .  S
O547        C568   1.268       .  A
O548       Ni571   1.921       .  S
O548        C557   1.280       .  A
O549       Ni553   1.865       .  S
O549       Ni571   1.887       .  S
O549       Ni565   1.918       .  S
O549        H572   0.961       .  S
C550        O567   1.267       .  A
C550        O559   1.294       .  A
C550       C1094   1.506       .  S
O551       Ni570   1.925       .  S
O551        C557   1.275       .  A
O552       Ni570   1.950       .  S
O552        C554   1.262       .  A
Ni553       O556   1.911       .  S
Ni553       O558   1.881       .  S
C554        O564   1.258       .  A
C554       C1107   1.490       .  S
O555       Ni571   1.948       .  S
O555        C561   1.286       .  A
O556        C561   1.279       .  A
C557       C1024   1.466       .  S
O558        C560   1.263       .  A
O559       Ni570   1.998       .  S
C560        O566   1.289       .  A
C560       C1034   1.485   1_554  S
C561       C1284   1.481       .  S
H562        O563   0.967       .  S
O563       Ni571   1.922       .  S
O563       Ni565   1.874       .  S
O563       Ni570   1.910       .  S
O564       Ni565   1.918       .  S
Ni565       O569   1.858       .  S
Ni565       O567   1.888       .  S
O566       Ni571   1.980       .  S
C568        O569   1.245       .  A
C568       C1074   1.424       .  S
O573       Ni579   1.914       .  S
O573        C594   1.269       .  A
O574       Ni597   1.897       .  S
O574        C583   1.278       .  A
O575       Ni579   1.864       .  S
O575       Ni597   1.862       .  S
O575       Ni591   1.927       .  S
O575        H598   0.958       .  S
C576        O593   1.282       .  A
C576        O585   1.292       .  A
C576       C1037   1.502   1_545  S
O577       Ni596   1.951       .  S
O577        C583   1.286       .  A
O578       Ni596   1.954       .  S
O578        C580   1.271       .  A
Ni579       O582   1.914       .  S
Ni579       O584   1.889       .  S
C580        O590   1.263       .  A
C580       C1054   1.505   1_556  S
O581       Ni597   1.942       .  S
O581        C587   1.283       .  A
O582        C587   1.278       .  A
C583       C1257   1.476       .  S
O584        C586   1.259       .  A
O585       Ni596   1.975       .  S
C586        O592   1.289       .  A
C586       C1207   1.486       .  S
C587       C1014   1.474       .  S
H588        O589   0.967       .  S
O589       Ni597   1.910       .  S
O589       Ni591   1.872       .  S
O589       Ni596   1.890       .  S
O590       Ni591   1.930       .  S
Ni591       O595   1.859       .  S
Ni591       O593   1.920       .  S
O592       Ni597   1.985       .  S
C594        O595   1.265       .  A
C594       C1004   1.429       .  S
O599       Ni605   1.901       .  S
O599        C620   1.264       .  A
O600       Ni623   1.904       .  S
O600        C609   1.279       .  A
O601       Ni605   1.861       .  S
O601       Ni623   1.864       .  S
O601       Ni617   1.940       .  S
O601        H624   0.958   1_554  S
C602        O619   1.277       .  A
C602        O611   1.295   1_554  A
C602       C1177   1.494   1_544  S
O603       Ni622   1.957       .  S
O603        C609   1.285       .  A
O604       Ni622   1.968   1_556  S
O604        C606   1.274       .  A
Ni605       O608   1.914       .  S
Ni605       O610   1.881       .  S
C606        O616   1.265       .  A
C606       C1197   1.520       .  S
O607       Ni623   1.930       .  S
O607        C613   1.282       .  A
O608        C613   1.280       .  A
C609       C1454   1.476       .  S
O610        C612   1.259       .  A
O611       Ni622   1.981   1_556  S
C612        O618   1.292       .  A
C612       C1064   1.485       .  S
C613        C994   1.470       .  S
H614        O615   0.967       .  S
O615       Ni623   1.906       .  S
O615       Ni617   1.874       .  S
O615       Ni622   1.896       .  S
O616       Ni617   1.938   1_556  S
Ni617       O621   1.873       .  S
Ni617       O619   1.902       .  S
O618       Ni623   1.989       .  S
C620        O621   1.260       .  A
C620       C1007   1.442   1_554  S
O625       Ni631   1.940       .  S
O625        C646   1.281       .  A
O626       Ni649   1.867       .  S
O626        C635   1.253       .  A
O627       Ni631   1.902       .  S
O627       Ni649   1.867       .  S
O627       Ni643   1.900       .  S
O627        H650   0.967       .  S
C628        O645   1.266       .  A
C628        O637   1.267       .  A
C628       C1047   1.482       .  S
O629       Ni648   1.902       .  S
O629        C635   1.268       .  A
O630       Ni648   1.888       .  S
O630        C632   1.276       .  A
Ni631       O634   1.982       .  S
Ni631       O636   1.947       .  S
C632        O642   1.305       .  A
C632        C984   1.489       .  S
O633       Ni649   1.908       .  S
O633        C639   1.275       .  A
O634        C639   1.291       .  A
C635        C974   1.438       .  S
O636        C638   1.268       .  A
O637       Ni648   1.919       .  S
C638        O644   1.262       .  A
C638        C957   1.488       .  S
C639        C964   1.507       .  S
H640        O641   0.960       .  S
O641       Ni649   1.957       .  S
O641       Ni643   1.881       .  S
O641       Ni648   1.869       .  S
O642       Ni643   2.011       .  S
Ni643       O647   1.909       .  S
Ni643       O645   1.920       .  S
O644       Ni649   1.929       .  S
C646        O647   1.279       .  A
C646       C1637   1.471       .  S
O651       Ni657   1.951       .  S
O651        C672   1.286       .  A
O652       Ni675   1.863       .  S
O652        C661   1.263       .  A
O653       Ni657   1.889       .  S
O653       Ni675   1.871       .  S
O653       Ni669   1.903       .  S
O653        H676   0.967       .  S
C654        O671   1.282       .  A
C654        O663   1.281       .  A
C654       C1187   1.491       .  S
O655       Ni674   1.929       .  S
O655        C661   1.277       .  A
O656       Ni674   1.890       .  S
O656        C658   1.260       .  A
Ni657       O660   1.977       .  S
Ni657       O662   1.945       .  S
C658        O668   1.286       .  A
C658        C944   1.487       .  S
O659       Ni675   1.906       .  S
O659        C665   1.277       .  A
O660        C665   1.292       .  A
C661        C977   1.460       .  S
O662        C664   1.270       .  A
O663       Ni674   1.926       .  S
C664        O670   1.265       .  A
C664        C924   1.501       .  S
C665        C934   1.500       .  S
H666        O667   0.959       .  S
O667       Ni675   1.914       .  S
O667       Ni669   1.861       .  S
O667       Ni674   1.861       .  S
O668       Ni669   1.981       .  S
Ni669       O673   1.888       .  S
Ni669       O671   1.934       .  S
O670       Ni675   1.930       .  S
C672        O673   1.275       .  A
C672       C1487   1.470       .  S
O677       Ni683   1.941       .  S
O677        C698   1.280       .  A
O678       Ni701   1.878       .  S
O678        C687   1.250       .  A
O679       Ni683   1.905       .  S
O679       Ni701   1.877       .  S
O679       Ni695   1.917       .  S
O679        H702   0.967       .  S
C680        O697   1.282       .  A
C680        O689   1.279       .  A
C680       C1737   1.491       .  S
O681       Ni700   1.889       .  S
O681        C687   1.263       .  A
O682       Ni700   1.879       .  S
O682        C684   1.265       .  A
Ni683       O686   1.981       .  S
Ni683       O688   1.963       .  S
C684        O694   1.287       .  A
C684        C937   1.476       .  S
O685       Ni701   1.907       .  S
O685        C691   1.277       .  A
O686        C691   1.293       .  A
C687        C917   1.435       .  S
O688        C690   1.270       .  A
O689       Ni700   1.923       .  S
C690        O696   1.258       .  A
C690        C897   1.511       .  S
C691        C904   1.499       .  S
H692        O693   0.960       .  S
O693       Ni701   1.966       .  S
O693       Ni695   1.880       .  S
O693       Ni700   1.874       .  S
O694       Ni695   1.966       .  S
Ni695       O699   1.901       .  S
Ni695       O697   1.941       .  S
O696       Ni701   1.923       .  S
C698        O699   1.274       .  A
C698       C1087   1.467       .  S
O703       Ni709   1.950       .  S
O703        C724   1.284       .  A
O704       Ni727   1.867       .  S
O704        C713   1.270       .  A
O705       Ni709   1.884       .  S
O705       Ni727   1.873       .  S
O705       Ni721   1.909       .  S
O705        H728   0.967       .  S
C706        O723   1.286       .  A
C706        O715   1.279       .  A
C706       C1527   1.483       .  S
O707       Ni726   1.921       .  S
O707        C713   1.272       .  A
O708       Ni726   1.894       .  S
O708        C710   1.259       .  A
Ni709       O712   1.969       .  S
Ni709       O714   1.943       .  S
C710        O720   1.283       .  A
C710        C887   1.483   1_554  S
O711       Ni727   1.924       .  S
O711        C717   1.284       .  A
O712        C717   1.290       .  A
C713        C914   1.444       .  S
O714        C716   1.271       .  A
O715       Ni726   1.912       .  S
C716        O722   1.265       .  A
C716        C927   1.478       .  S
C717        C987   1.502       .  S
H718        O719   0.961       .  S
O719       Ni727   1.912       .  S
O719       Ni721   1.858       .  S
O719       Ni726   1.862       .  S
O720       Ni721   1.973       .  S
Ni721       O725   1.882       .  S
Ni721       O723   1.948       .  S
O722       Ni727   1.922       .  S
C724        O725   1.271       .  A
C724        C997   1.462       .  S
O729       Ni735   1.947       .  S
O729        C750   1.281       .  A
O730       Ni753   1.849       .  S
O730        C739   1.255       .  A
O731       Ni735   1.896       .  S
O731       Ni753   1.864       .  S
O731       Ni747   1.917       .  S
O731        H754   0.967       .  S
C732        O749   1.285       .  A
C732        O741   1.282       .  A
C732       C1027   1.489       .  S
O733       Ni752   1.912       .  S
O733        C739   1.266       .  A
O734       Ni752   1.885       .  S
O734        C736   1.261       .  A
Ni735       O738   1.983   1_554  S
Ni735       O740   1.957   1_554  S
C736        O746   1.286       .  A
C736        C907   1.481       .  S
O737       Ni753   1.906       .  S
O737        C743   1.277       .  A
O738        C743   1.294   1_556  A
C739        C874   1.412       .  S
O740        C742   1.272       .  A
O741       Ni752   1.921       .  S
C742        O748   1.264       .  A
C742        C854   1.510       .  S
C743        C864   1.499   1_554  S
H744        O745   0.960   1_556  S
O745       Ni753   1.936       .  S
O745       Ni747   1.861       .  S
O745       Ni752   1.864       .  S
O746       Ni747   1.975       .  S
Ni747       O751   1.889       .  S
Ni747       O749   1.940       .  S
O748       Ni753   1.931   1_556  S
C750        O751   1.272       .  A
C750       C1667   1.458       .  S
O755       Ni761   1.938       .  S
O755        C776   1.279       .  A
O756       Ni779   1.865       .  S
O756        C765   1.257       .  A
O757       Ni761   1.899       .  S
O757       Ni779   1.874       .  S
O757       Ni773   1.918       .  S
O757        H780   0.967       .  S
C758        O775   1.282       .  A
C758        O767   1.283       .  A
C758       C1147   1.472       .  S
O759       Ni778   1.907       .  S
O759        C765   1.264       .  A
O760       Ni778   1.877       .  S
O760        C762   1.259       .  A
Ni761       O764   1.979       .  S
Ni761       O766   1.956       .  S
C762        O772   1.291       .  A
C762        C844   1.485       .  S
O763       Ni779   1.901       .  S
O763        C769   1.275       .  A
O764        C769   1.292       .  A
C765        C877   1.445       .  S
O766        C768   1.270   1_556  A
O767       Ni778   1.918       .  S
C768        O774   1.263   1_554  A
C768        C894   1.508       .  S
C769        C884   1.493       .  S
H770        O771   0.960       .  S
O771       Ni779   1.930       .  S
O771       Ni773   1.859       .  S
O771       Ni778   1.851       .  S
O772       Ni773   1.986       .  S
Ni773       O777   1.900       .  S
Ni773       O775   1.923       .  S
O774       Ni779   1.930       .  S
C776        O777   1.274       .  A
C776       C1517   1.463       .  S
O781       Ni787   1.941       .  S
O781        C802   1.281       .  A
O782       Ni805   1.879       .  S
O782        C791   1.246       .  A
O783       Ni787   1.916       .  S
O783       Ni805   1.885       .  S
O783       Ni799   1.931       .  S
O783        H806   0.967       .  S
C784        O801   1.285       .  A
C784        O793   1.277       .  A
C784       C1687   1.499       .  S
O785       Ni804   1.885       .  S
O785        C791   1.261       .  A
O786       Ni804   1.876       .  S
O786        C788   1.265       .  A
Ni787       O790   1.990       .  S
Ni787       O792   1.952       .  S
C788        O798   1.292       .  A
C788        C967   1.481       .  S
O789       Ni805   1.901       .  S
O789        C795   1.270       .  A
O790        C795   1.291       .  A
C791        C834   1.437       .  S
O792        C794   1.269       .  A
O793       Ni804   1.911       .  S
C794        O800   1.264       .  A
C794        C857   1.510       .  S
C795        C847   1.505       .  S
H796        O797   0.960       .  S
O797       Ni805   1.958       .  S
O797       Ni799   1.886       .  S
O797       Ni804   1.875       .  S
O798       Ni799   1.978       .  S
Ni799       O803   1.921       .  S
Ni799       O801   1.951       .  S
O800       Ni805   1.935       .  S
C802        O803   1.281       .  A
C802       C1137   1.480       .  S
O807       Ni813   1.950       .  S
O807        C828   1.284       .  A
O808       Ni831   1.860       .  S
O808        C817   1.269       .  A
O809       Ni813   1.887       .  S
O809       Ni831   1.870       .  S
O809       Ni825   1.903       .  S
O809        H832   0.967       .  S
C810        O827   1.282       .  A
C810        O819   1.281       .  A
C810       C1567   1.480       .  S
O811       Ni830   1.928       .  S
O811        C817   1.275       .  A
O812       Ni830   1.888       .  S
O812        C814   1.258       .  A
Ni813       O816   1.968       .  S
Ni813       O818   1.953       .  S
C814        O824   1.289       .  A
C814        C867   1.489       .  S
O815       Ni831   1.926       .  S
O815        C821   1.284       .  A
O816        C821   1.292       .  A
C817        C837   1.448       .  S
O818        C820   1.272       .  A
O819       Ni830   1.921       .  S
C820        O826   1.264       .  A
C820        C954   1.506       .  S
C821        C947   1.500       .  S
H822        O823   0.958       .  S
O823       Ni831   1.916       .  S
O823       Ni825   1.859       .  S
O823       Ni830   1.859       .  S
O824       Ni825   1.986       .  S
Ni825       O829   1.890       .  S
Ni825       O827   1.931       .  S
O826       Ni831   1.928       .  S
C828        O829   1.275       .  A
C828       C1017   1.470       .  S
C833        C834   1.397       .  A
C833        C838   1.387       .  A
C833        F840   1.358       .  S
C834        C835   1.403       .  A
C835        C836   1.383       .  A
C835        F842   1.355       .  S
C836        C837   1.398       .  A
C836        F841   1.358       .  S
C837        C838   1.406       .  A
C838        F839   1.358       .  S
C843        C844   1.414       .  A
C843        C848   1.408       .  A
C843        F850   1.358       .  S
C844        C845   1.406       .  A
C845        C846   1.410       .  A
C845        F852   1.358       .  S
C846        C847   1.416       .  A
C846        F851   1.358       .  S
C847        C848   1.407       .  A
C848        F849   1.357       .  S
C853        C854   1.412       .  A
C853        C858   1.398       .  A
C853        F860   1.359       .  S
C854        C855   1.414       .  A
C855        C856   1.419       .  A
C855        F862   1.357       .  S
C856        C857   1.414       .  A
C856        F861   1.357       .  S
C857        C858   1.412       .  A
C858        F859   1.358       .  S
C863        C864   1.405       .  A
C863        C868   1.404       .  A
C863        F870   1.358   1_556  S
C864        C865   1.415       .  A
C865        C866   1.412       .  A
C865        F872   1.358       .  S
C866        C867   1.407       .  A
C866        F871   1.358       .  S
C867        C868   1.414       .  A
C868        F869   1.359       .  S
C873        C874   1.390       .  A
C873        C878   1.384   1_554  A
C873        F880   1.358       .  S
C874        C875   1.395   1_554  A
C875        C876   1.373       .  A
C875        F882   1.359       .  S
C876        C877   1.403       .  A
C876        F881   1.359       .  S
C877        C878   1.413       .  A
C878        F879   1.358       .  S
C883        C884   1.404       .  A
C883        C888   1.402       .  A
C883        F890   1.358       .  S
C884        C885   1.413       .  A
C885        C886   1.408       .  A
C885        F892   1.358       .  S
C886        C887   1.406       .  A
C886        F891   1.358   1_556  S
C887        C888   1.412       .  A
C888        F889   1.358       .  S
C893        C894   1.415       .  A
C893        C898   1.420       .  A
C893        F900   1.357       .  S
C894        C895   1.410       .  A
C895        C896   1.396       .  A
C895        F902   1.358       .  S
C896        C897   1.414       .  A
C896        F901   1.358       .  S
C897        C898   1.414       .  A
C898        F899   1.357       .  S
C903        C904   1.407       .  A
C903        C908   1.405       .  A
C903        F910   1.358       .  S
C904        C905   1.414       .  A
C905        C906   1.409       .  A
C905        F912   1.358       .  S
C906        C907   1.407       .  A
C906        F911   1.358       .  S
C907        C908   1.410       .  A
C908        F909   1.358       .  S
C913        C914   1.404       .  A
C913        C918   1.386       .  A
C913        F920   1.357       .  S
C914        C915   1.399       .  A
C915        C916   1.382       .  A
C915        F922   1.358       .  S
C916        C917   1.402       .  A
C916        F921   1.356       .  S
C917        C918   1.397       .  A
C918        F919   1.358       .  S
C923        C924   1.412       .  A
C923        C928   1.412       .  A
C923        F930   1.357       .  S
C924        C925   1.417       .  A
C925        C926   1.394       .  A
C925        F932   1.357       .  S
C926        C927   1.398       .  A
C926        F931   1.359       .  S
C927        C928   1.410       .  A
C928        F929   1.358       .  S
C933        C934   1.414       .  A
C933        C938   1.407       .  A
C933        F940   1.355       .  S
C934        C935   1.408       .  A
C935        C936   1.403       .  A
C935        F942   1.358       .  S
C936        C937   1.410       .  A
C936        F941   1.359       .  S
C937        C938   1.403       .  A
C938        F939   1.358       .  S
C943        C944   1.411       .  A
C943        C948   1.414       .  A
C943        F950   1.358       .  S
C944        C945   1.409       .  A
C945        C946   1.403       .  A
C945        F952   1.358       .  S
C946        C947   1.408       .  A
C946        F951   1.358       .  S
C947        C948   1.411       .  A
C948        F949   1.357       .  S
C953        C954   1.412       .  A
C953        C958   1.414       .  A
C953        F960   1.357       .  S
C954        C955   1.418       .  A
C955        C956   1.396       .  A
C955        F962   1.357       .  S
C956        C957   1.401       .  A
C956        F961   1.359       .  S
C957        C958   1.412       .  A
C958        F959   1.358       .  S
C963        C964   1.416       .  A
C963        C968   1.408       .  A
C963        F970   1.357       .  S
C964        C965   1.410       .  A
C965        C966   1.407       .  A
C965        F972   1.358       .  S
C966        C967   1.411       .  A
C966        F971   1.359       .  S
C967        C968   1.405       .  A
C968        F969   1.358       .  S
C973        C974   1.397       .  A
C973        C978   1.386       .  A
C973        F980   1.358       .  S
C974        C975   1.398       .  A
C975        C976   1.381       .  A
C975        F982   1.355       .  S
C976        C977   1.403       .  A
C976        F981   1.357       .  S
C977        C978   1.410       .  A
C978        F979   1.356       .  S
C983        C984   1.408       .  A
C983        C988   1.410       .  A
C983        F990   1.358       .  S
C984        C985   1.410       .  A
C985        C986   1.408       .  A
C985        F992   1.358       .  S
C986        C987   1.409       .  A
C986        F991   1.356       .  S
C987        C988   1.412       .  A
C988        F989   1.358       .  S
C993        C994   1.408       .  A
C993        C998   1.392       .  A
C993       F1000   1.358       .  S
C994        C995   1.407       .  A
C995        C996   1.397       .  A
C995       F1002   1.358   1_554  S
C996        C997   1.403       .  A
C996       F1001   1.358       .  S
C997        C998   1.401       .  A
C998        F999   1.358       .  S
C1003      C1004   1.399       .  A
C1003      C1008   1.383       .  A
C1003      F1010   1.359       .  S
C1004      C1005   1.398       .  A
C1005      C1006   1.382       .  A
C1005      F1012   1.359       .  S
C1006      C1007   1.405       .  A
C1006      F1011   1.358   1_556  S
C1007      C1008   1.404       .  A
C1008      F1009   1.359       .  S
C1013      C1014   1.406       .  A
C1013      C1018   1.395       .  A
C1013      F1020   1.358       .  S
C1014      C1015   1.408       .  A
C1015      C1016   1.399       .  A
C1015      F1022   1.358       .  S
C1016      C1017   1.404       .  A
C1016      F1021   1.358       .  S
C1017      C1018   1.405       .  A
C1018      F1019   1.358       .  S
C1023      C1024   1.401       .  A
C1023      C1028   1.403       .  A
C1023      F1030   1.357       .  S
C1024      C1025   1.404       .  A
C1025      C1026   1.396       .  A
C1025      F1032   1.359       .  S
C1026      C1027   1.410       .  A
C1026      F1031   1.358       .  S
C1027      C1028   1.414       .  A
C1028      F1029   1.358       .  S
C1033      C1034   1.410       .  A
C1033      C1038   1.412       .  A
C1033      F1040   1.358   1_556  S
C1034      C1035   1.409       .  A
C1035      C1036   1.407       .  A
C1035      F1042   1.358       .  S
C1036      C1037   1.409       .  A
C1036      F1041   1.358       .  S
C1037      C1038   1.412       .  A
C1038      F1039   1.358       .  S
C1043      C1044   1.401       .  A
C1043      C1048   1.395       .  A
C1043      F1050   1.359       .  S
C1044      C1045   1.405       .  A
C1045      C1046   1.404       .  A
C1045      F1052   1.358       .  S
C1046      C1047   1.409       .  A
C1046      F1051   1.358       .  S
C1047      C1048   1.409       .  A
C1048      F1049   1.358       .  S
C1053      C1054   1.411       .  A
C1053      C1058   1.415       .  A
C1053      F1060   1.357       .  S
C1054      C1055   1.417       .  A
C1055      C1056   1.394       .  A
C1055      F1062   1.354       .  S
C1056      C1057   1.399       .  A
C1056      F1061   1.359       .  S
C1057      C1058   1.413       .  A
C1058      F1059   1.357       .  S
C1063      C1064   1.412       .  A
C1063      C1068   1.407       .  A
C1063      F1070   1.358       .  S
C1064      C1065   1.409       .  A
C1065      C1066   1.412       .  A
C1065      F1072   1.358       .  S
C1066      C1067   1.413       .  A
C1066      F1071   1.357       .  S
C1067      C1068   1.409       .  A
C1068      F1069   1.357       .  S
C1073      C1074   1.391       .  A
C1073      C1078   1.378   1_565  A
C1073      F1080   1.359       .  S
C1074      C1075   1.399       .  A
C1075      C1076   1.384       .  A
C1075      F1082   1.359       .  S
C1076      C1077   1.402   1_565  A
C1076      F1081   1.358       .  S
C1077      C1078   1.411       .  A
C1078      F1079   1.359       .  S
C1083      C1084   1.409       .  A
C1083      C1088   1.403       .  A
C1083      F1090   1.357       .  S
C1084      C1085   1.414       .  A
C1085      C1086   1.392       .  A
C1085      F1092   1.358       .  S
C1086      C1087   1.399       .  A
C1086      F1091   1.359       .  S
C1087      C1088   1.405       .  A
C1088      F1089   1.358       .  S
C1093      C1094   1.421       .  A
C1093      C1098   1.406       .  A
C1093      F1100   1.358       .  S
C1094      C1095   1.407       .  A
C1095      C1096   1.407       .  A
C1095      F1102   1.357       .  S
C1096      C1097   1.413       .  A
C1096      F1101   1.359       .  S
C1097      C1098   1.401       .  A
C1098      F1099   1.358       .  S
C1103      C1104   1.417       .  A
C1103      C1108   1.387       .  A
C1103      F1110   1.347       .  S
C1104      C1105   1.413       .  A
C1105      C1106   1.423       .  A
C1105      F1112   1.357       .  S
C1106      C1107   1.417       .  A
C1106      F1111   1.357       .  S
C1107      C1108   1.394       .  A
C1108      F1109   1.360       .  S
C1113      C1114   1.420       .  A
C1113      C1118   1.410       .  A
C1113      F1120   1.358       .  S
C1114      C1115   1.406       .  A
C1115      C1116   1.408       .  A
C1115      F1122   1.357       .  S
C1116      C1117   1.415       .  A
C1116      F1121   1.358       .  S
C1117      C1118   1.404       .  A
C1118      F1119   1.358       .  S
C1123      C1124   1.392       .  A
C1123      C1128   1.380       .  A
C1123      F1130   1.356       .  S
C1124      C1125   1.400       .  A
C1125      C1126   1.381       .  A
C1125      F1132   1.357       .  S
C1126      C1127   1.395       .  A
C1126      F1131   1.358       .  S
C1127      C1128   1.406       .  A
C1128      F1129   1.359       .  S
C1133      C1134   1.413       .  A
C1133      C1138   1.408       .  A
C1133      F1140   1.357       .  S
C1134      C1135   1.412       .  A
C1135      C1136   1.399       .  A
C1135      F1142   1.358       .  S
C1136      C1137   1.405       .  A
C1136      F1141   1.358       .  S
C1137      C1138   1.405       .  A
C1138      F1139   1.358       .  S
C1143      C1144   1.398       .  A
C1143      C1148   1.389       .  A
C1143      F1150   1.359       .  S
C1144      C1145   1.401       .  A
C1145      C1146   1.398       .  A
C1145      F1152   1.358       .  S
C1146      C1147   1.409       .  A
C1146      F1151   1.358       .  S
C1147      C1148   1.410       .  A
C1148      F1149   1.358       .  S
C1153      C1154   1.410       .  A
C1153      C1158   1.419       .  A
C1153      F1160   1.357       .  S
C1154      C1155   1.418       .  A
C1155      C1156   1.388       .  A
C1155      F1162   1.347       .  S
C1156      C1157   1.391       .  A
C1156      F1161   1.360       .  S
C1157      C1158   1.416       .  A
C1158      F1159   1.357       .  S
C1163      C1164   1.401       .  A
C1163      C1168   1.401       .  A
C1163      F1170   1.359       .  S
C1164      C1165   1.414       .  A
C1165      C1166   1.422       .  A
C1165      F1172   1.356       .  S
C1166      C1167   1.411       .  A
C1166      F1171   1.356       .  S
C1167      C1168   1.414       .  A
C1168      F1169   1.352       .  S
C1173      C1174   1.412       .  A
C1173      C1178   1.402       .  A
C1173      F1180   1.359       .  S
C1174      C1175   1.407       .  A
C1175      C1176   1.410       .  A
C1175      F1182   1.358       .  S
C1176      C1177   1.413       .  A
C1176      F1181   1.358       .  S
C1177      C1178   1.405       .  A
C1178      F1179   1.358   1_556  S
C1183      C1184   1.401       .  A
C1183      C1188   1.397       .  A
C1183      F1190   1.358       .  S
C1184      C1185   1.402       .  A
C1185      C1186   1.402       .  A
C1185      F1192   1.358       .  S
C1186      C1187   1.413       .  A
C1186      F1191   1.358       .  S
C1187      C1188   1.413       .  A
C1188      F1189   1.358       .  S
C1193      C1194   1.417       .  A
C1193      C1198   1.424       .  A
C1193      F1200   1.357       .  S
C1194      C1195   1.398       .  A
C1195      C1196   1.395       .  A
C1195      F1202   1.359       .  S
C1196      C1197   1.416       .  A
C1196      F1201   1.348       .  S
C1197      C1198   1.414       .  A
C1198      F1199   1.357       .  S
C1203      C1204   1.413       .  A
C1203      C1208   1.412       .  A
C1203      F1210   1.358       .  S
C1204      C1205   1.406       .  A
C1205      C1206   1.405       .  A
C1205      F1212   1.358       .  S
C1206      C1207   1.412       .  A
C1206      F1211   1.358       .  S
C1207      C1208   1.408       .  A
C1208      F1209   1.358       .  S
C1213      C1214   1.395       .  A
C1213      C1218   1.376   1_545  A
C1213      F1220   1.359       .  S
C1214      C1215   1.395   1_545  A
C1215      C1216   1.382       .  A
C1215      F1222   1.358   1_565  S
C1216      C1217   1.405       .  A
C1216      F1221   1.359       .  S
C1217      C1218   1.404       .  A
C1218      F1219   1.359       .  S
C1223      C1224   1.417       .  A
C1223      C1228   1.410       .  A
C1223      F1230   1.358   1_545  S
C1224      C1225   1.406       .  A
C1225      C1226   1.407       .  A
C1225      F1232   1.357       .  S
C1226      C1227   1.414       .  A
C1226      F1231   1.358       .  S
C1227      C1228   1.406       .  A
C1228      F1229   1.358       .  S
C1233      C1234   1.412       .  A
C1233      C1238   1.402   1_655  A
C1233      F1240   1.358       .  S
C1234      C1235   1.413       .  A
C1235      C1236   1.395       .  A
C1235      F1242   1.358       .  S
C1236      C1237   1.401   1_655  A
C1236      F1241   1.359   1_655  S
C1237      C1238   1.403       .  A
C1238      F1239   1.358       .  S
C1243      C1244   1.399   1_565  A
C1243      C1248   1.380       .  A
C1243      F1250   1.359   1_565  S
C1244      C1245   1.401   1_545  A
C1245      C1246   1.380       .  A
C1245      F1252   1.358   1_565  S
C1246      C1247   1.401       .  A
C1246      F1251   1.359       .  S
C1247      C1248   1.402       .  A
C1248      F1249   1.358       .  S
C1253      C1254   1.405       .  A
C1253      C1258   1.396       .  A
C1253      F1260   1.358       .  S
C1254      C1255   1.409       .  A
C1255      C1256   1.402       .  A
C1255      F1262   1.358       .  S
C1256      C1257   1.404   1_655  A
C1256      F1261   1.358   1_655  S
C1257      C1258   1.407   1_455  A
C1258      F1259   1.358       .  S
C1263      C1264   1.401       .  A
C1263      C1268   1.400       .  A
C1263      F1270   1.358       .  S
C1264      C1265   1.406       .  A
C1265      C1266   1.398       .  A
C1265      F1272   1.358       .  S
C1266      C1267   1.406       .  A
C1266      F1271   1.358       .  S
C1267      C1268   1.411       .  A
C1268      F1269   1.358       .  S
C1273      C1274   1.409       .  A
C1273      C1278   1.413       .  A
C1273      F1280   1.358       .  S
C1274      C1275   1.412       .  A
C1275      C1276   1.409       .  A
C1275      F1282   1.358       .  S
C1276      C1277   1.410       .  A
C1276      F1281   1.358       .  S
C1277      C1278   1.414       .  A
C1278      F1279   1.357       .  S
C1283      C1284   1.410       .  A
C1283      C1288   1.409   1_455  A
C1283      F1290   1.357       .  S
C1284      C1285   1.408       .  A
C1285      C1286   1.391   1_455  A
C1285      F1292   1.359       .  S
C1286      C1287   1.402       .  A
C1286      F1291   1.359       .  S
C1287      C1288   1.406       .  A
C1288      F1289   1.357       .  S
C1293      C1294   1.413       .  A
C1293      C1298   1.417       .  A
C1293      F1300   1.357       .  S
C1294      C1295   1.419       .  A
C1295      C1296   1.397       .  A
C1295      F1302   1.356       .  S
C1296      C1297   1.400       .  A
C1296      F1301   1.359       .  S
C1297      C1298   1.413       .  A
C1298      F1299   1.357       .  S
C1303      C1304   1.412   1_556  A
C1303      C1308   1.411       .  A
C1303      F1310   1.358   1_545  S
C1304      C1305   1.406       .  A
C1305      C1306   1.406   1_554  A
C1305      F1312   1.358       .  S
C1306      C1307   1.412       .  A
C1306      F1311   1.358       .  S
C1307      C1308   1.409       .  A
C1308      F1309   1.358       .  S
C1313      C1314   1.398       .  A
C1313      C1318   1.382       .  A
C1313      F1320   1.358       .  S
C1314      C1315   1.402       .  A
C1315      C1316   1.377   1_556  A
C1315      F1322   1.360   1_556  S
C1316      C1317   1.394   1_554  A
C1316      F1321   1.360       .  S
C1317      C1318   1.395       .  A
C1318      F1319   1.355       .  S
C1323      C1324   1.403       .  A
C1323      C1328   1.401       .  A
C1323      F1330   1.358       .  S
C1324      C1325   1.404       .  A
C1325      C1326   1.395       .  A
C1325      F1332   1.359       .  S
C1326      C1327   1.410       .  A
C1326      F1331   1.358       .  S
C1327      C1328   1.411       .  A
C1328      F1329   1.358       .  S
C1333      C1334   1.409       .  A
C1333      C1338   1.410       .  A
C1333      F1340   1.358       .  S
C1334      C1335   1.411       .  A
C1335      C1336   1.407       .  A
C1335      F1342   1.358       .  S
C1336      C1337   1.408       .  A
C1336      F1341   1.358       .  S
C1337      C1338   1.413       .  A
C1338      F1339   1.358       .  S
C1343      C1344   1.411   1_655  A
C1343      C1348   1.402       .  A
C1343      F1350   1.358   1_655  S
C1344      C1345   1.411       .  A
C1345      C1346   1.396   1_455  A
C1345      F1352   1.358       .  S
C1346      C1347   1.403       .  A
C1346      F1351   1.359       .  S
C1347      C1348   1.402       .  A
C1348      F1349   1.358       .  S
C1353      C1354   1.414       .  A
C1353      C1358   1.420       .  A
C1353      F1360   1.357       .  S
C1354      C1355   1.402       .  A
C1355      C1356   1.396       .  A
C1355      F1362   1.359       .  S
C1356      C1357   1.416       .  A
C1356      F1361   1.353       .  S
C1357      C1358   1.413       .  A
C1358      F1359   1.357       .  S
C1363      C1364   1.406       .  A
C1363      C1368   1.408       .  A
C1363      F1370   1.357       .  S
C1364      C1365   1.419       .  A
C1365      C1366   1.409       .  A
C1365      F1372   1.358       .  S
C1366      C1367   1.405       .  A
C1366      F1371   1.358       .  S
C1367      C1368   1.415       .  A
C1368      F1369   1.358       .  S
C1373      C1374   1.401       .  A
C1373      C1378   1.383       .  A
C1373      F1380   1.359       .  S
C1374      C1375   1.394       .  A
C1375      C1376   1.381       .  A
C1375      F1382   1.358       .  S
C1376      C1377   1.407       .  A
C1376      F1381   1.359       .  S
C1377      C1378   1.398       .  A
C1378      F1379   1.358       .  S
C1383      C1384   1.418       .  A
C1383      C1388   1.393       .  A
C1383      F1390   1.356       .  S
C1384      C1385   1.411       .  A
C1385      C1386   1.415       .  A
C1385      F1392   1.357       .  S
C1386      C1387   1.412       .  A
C1386      F1391   1.358       .  S
C1387      C1388   1.397       .  A
C1388      F1389   1.359       .  S
C1393      C1394   1.408       .  A
C1393      C1398   1.410       .  A
C1393      F1400   1.358       .  S
C1394      C1395   1.412       .  A
C1395      C1396   1.408       .  A
C1395      F1402   1.358       .  S
C1396      C1397   1.408       .  A
C1396      F1401   1.356       .  S
C1397      C1398   1.410       .  A
C1398      F1399   1.357       .  S
C1403      C1404   1.409       .  A
C1403      C1408   1.398       .  A
C1403      F1410   1.358       .  S
C1404      C1405   1.410       .  A
C1405      C1406   1.392       .  A
C1405      F1412   1.358       .  S
C1406      C1407   1.401       .  A
C1406      F1411   1.359       .  S
C1407      C1408   1.402       .  A
C1408      F1409   1.358       .  S
C1413      C1414   1.405       .  A
C1413      C1418   1.409       .  A
C1413      F1420   1.358       .  S
C1414      C1415   1.416       .  A
C1415      C1416   1.406       .  A
C1415      F1422   1.358       .  S
C1416      C1417   1.403       .  A
C1416      F1421   1.357       .  S
C1417      C1418   1.417       .  A
C1418      F1419   1.357       .  S
C1423      C1424   1.415       .  A
C1423      C1428   1.391       .  A
C1423      F1430   1.353       .  S
C1424      C1425   1.414       .  A
C1425      C1426   1.420       .  A
C1425      F1432   1.357       .  S
C1426      C1427   1.414       .  A
C1426      F1431   1.357       .  S
C1427      C1428   1.400       .  A
C1428      F1429   1.360       .  S
C1433      C1434   1.404       .  A
C1433      C1438   1.411       .  A
C1433      F1440   1.358       .  S
C1434      C1435   1.411       .  A
C1435      C1436   1.408       .  A
C1435      F1442   1.359       .  S
C1436      C1437   1.411       .  A
C1436      F1441   1.358       .  S
C1437      C1438   1.420       .  A
C1438      F1439   1.357       .  S
C1443      C1444   1.407       .  A
C1443      C1448   1.386   1_565  A
C1443      F1450   1.356       .  S
C1444      C1445   1.405       .  A
C1445      C1446   1.383   1_565  A
C1445      F1452   1.358       .  S
C1446      C1447   1.397       .  A
C1446      F1451   1.359       .  S
C1447      C1448   1.393       .  A
C1448      F1449   1.358       .  S
C1453      C1454   1.404       .  A
C1453      C1458   1.407       .  A
C1453      F1460   1.357       .  S
C1454      C1455   1.399       .  A
C1455      C1456   1.399       .  A
C1455      F1462   1.358       .  S
C1456      C1457   1.418       .  A
C1456      F1461   1.358       .  S
C1457      C1458   1.414       .  A
C1458      F1459   1.357       .  S
C1463      C1464   1.404       .  A
C1463      C1468   1.411       .  A
C1463      F1470   1.358       .  S
C1464      C1465   1.413       .  A
C1465      C1466   1.409       .  A
C1465      F1472   1.359   1_556  S
C1466      C1467   1.408       .  A
C1466      F1471   1.357       .  S
C1467      C1468   1.420       .  A
C1468      F1469   1.357       .  S
C1473      C1474   1.405       .  A
C1473      C1478   1.394       .  A
C1473      F1480   1.359       .  S
C1474      C1475   1.402       .  A
C1475      C1476   1.403       .  A
C1475      F1482   1.357       .  S
C1476      C1477   1.410       .  A
C1476      F1481   1.358       .  S
C1477      C1478   1.404       .  A
C1478      F1479   1.358       .  S
C1483      C1484   1.405       .  A
C1483      C1488   1.395       .  A
C1483      F1490   1.358       .  S
C1484      C1485   1.408       .  A
C1485      C1486   1.398       .  A
C1485      F1492   1.358       .  S
C1486      C1487   1.403       .  A
C1486      F1491   1.358       .  S
C1487      C1488   1.406       .  A
C1488      F1489   1.358       .  S
C1493      C1494   1.405       .  A
C1493      C1498   1.396       .  A
C1493      F1500   1.359       .  S
C1494      C1495   1.404       .  A
C1495      C1496   1.408       .  A
C1495      F1502   1.357       .  S
C1496      C1497   1.414       .  A
C1496      F1501   1.358       .  S
C1497      C1498   1.410       .  A
C1498      F1499   1.358       .  S
C1503      C1504   1.389       .  A
C1503      C1508   1.383       .  A
C1503      F1510   1.358       .  S
C1504      C1505   1.397       .  A
C1505      C1506   1.382       .  A
C1505      F1512   1.359       .  S
C1506      C1507   1.406       .  A
C1506      F1511   1.359       .  S
C1507      C1508   1.407       .  A
C1508      F1509   1.352       .  S
C1513      C1514   1.410       .  A
C1513      C1518   1.406       .  A
C1513      F1520   1.357       .  S
C1514      C1515   1.409       .  A
C1515      C1516   1.388       .  A
C1515      F1522   1.359       .  S
C1516      C1517   1.399       .  A
C1516      F1521   1.359       .  S
C1517      C1518   1.404       .  A
C1518      F1519   1.357       .  S
C1523      C1524   1.404       .  A
C1523      C1528   1.398       .  A
C1523      F1530   1.359       .  S
C1524      C1525   1.400       .  A
C1525      C1526   1.398       .  A
C1525      F1532   1.358       .  S
C1526      C1527   1.411       .  A
C1526      F1531   1.358       .  S
C1527      C1528   1.409       .  A
C1528      F1529   1.358       .  S
C1533      C1534   1.397       .  A
C1533      C1538   1.391       .  A
C1533      F1540   1.359       .  S
C1534      C1535   1.414       .  A
C1535      C1536   1.416       .  A
C1535      F1542   1.358       .  S
C1536      C1537   1.409       .  A
C1536      F1541   1.357       .  S
C1537      C1538   1.416       .  A
C1538      F1539   1.355       .  S
C1543      C1544   1.422       .  A
C1543      C1548   1.409       .  A
C1543      F1550   1.358       .  S
C1544      C1545   1.408       .  A
C1545      C1546   1.410       .  A
C1545      F1552   1.357       .  S
C1546      C1547   1.414       .  A
C1546      F1551   1.358       .  S
C1547      C1548   1.402       .  A
C1548      F1549   1.358       .  S
C1553      C1554   1.402       .  A
C1553      C1558   1.406       .  A
C1553      F1560   1.358       .  S
C1554      C1555   1.405       .  A
C1555      C1556   1.401       .  A
C1555      F1562   1.358       .  S
C1556      C1557   1.412       .  A
C1556      F1561   1.358   1_554  S
C1557      C1558   1.417       .  A
C1558      F1559   1.358       .  S
C1563      C1564   1.400       .  A
C1563      C1568   1.398       .  A
C1563      F1570   1.358       .  S
C1564      C1565   1.401       .  A
C1565      C1566   1.393   1_655  A
C1565      F1572   1.359       .  S
C1566      C1567   1.411       .  A
C1566      F1571   1.358       .  S
C1567      C1568   1.410   1_455  A
C1568      F1569   1.358   1_655  S
C1573      C1574   1.398   1_554  A
C1573      C1578   1.385       .  A
C1573      F1580   1.358       .  S
C1574      C1575   1.396       .  A
C1575      C1576   1.384       .  A
C1575      F1582   1.358       .  S
C1576      C1577   1.401       .  A
C1576      F1581   1.357       .  S
C1577      C1578   1.402   1_556  A
C1578      F1579   1.359       .  S
C1583      C1584   1.410       .  A
C1583      C1588   1.402       .  A
C1583      F1590   1.358       .  S
C1584      C1585   1.411       .  A
C1585      C1586   1.393       .  A
C1585      F1592   1.358       .  S
C1586      C1587   1.402       .  A
C1586      F1591   1.358       .  S
C1587      C1588   1.405       .  A
C1588      F1589   1.358       .  S
C1593      C1594   1.407       .  A
C1593      C1598   1.403       .  A
C1593      F1600   1.358       .  S
C1594      C1595   1.405       .  A
C1595      C1596   1.410       .  A
C1595      F1602   1.357       .  S
C1596      C1597   1.411       .  A
C1596      F1601   1.351       .  S
C1597      C1598   1.410       .  A
C1598      F1599   1.358       .  S
C1603      C1604   1.403       .  A
C1603      C1608   1.396       .  A
C1603      F1610   1.359       .  S
C1604      C1605   1.401       .  A
C1605      C1606   1.403       .  A
C1605      F1612   1.358       .  S
C1606      C1607   1.414       .  A
C1606      F1611   1.358       .  S
C1607      C1608   1.408       .  A
C1608      F1609   1.358       .  S
C1613      C1614   1.416       .  A
C1613      C1618   1.392       .  A
C1613      F1620   1.351       .  S
C1614      C1615   1.411       .  A
C1615      C1616   1.419       .  A
C1615      F1622   1.357       .  S
C1616      C1617   1.415       .  A
C1616      F1621   1.357       .  S
C1617      C1618   1.397       .  A
C1618      F1619   1.359       .  S
C1623      C1624   1.410       .  A
C1623      C1628   1.412       .  A
C1623      F1630   1.357       .  S
C1624      C1625   1.410       .  A
C1625      C1626   1.405       .  A
C1625      F1632   1.357       .  S
C1626      C1627   1.407       .  A
C1626      F1631   1.358       .  S
C1627      C1628   1.409       .  A
C1628      F1629   1.358       .  S
C1633      C1634   1.408       .  A
C1633      C1638   1.401       .  A
C1633      F1640   1.358       .  S
C1634      C1635   1.414       .  A
C1635      C1636   1.401       .  A
C1635      F1642   1.358       .  S
C1636      C1637   1.400   1_655  A
C1636      F1641   1.358   1_655  S
C1637      C1638   1.406   1_455  A
C1638      F1639   1.358   1_655  S
C1643      C1644   1.408       .  A
C1643      C1648   1.399       .  A
C1643      F1650   1.358       .  S
C1644      C1645   1.403       .  A
C1645      C1646   1.394       .  A
C1645      F1652   1.358       .  S
C1646      C1647   1.404       .  A
C1646      F1651   1.358   1_554  S
C1647      C1648   1.401       .  A
C1648      F1649   1.358       .  S
C1653      C1654   1.400       .  A
C1653      C1658   1.380       .  A
C1653      F1660   1.359       .  S
C1654      C1655   1.399       .  A
C1655      C1656   1.380       .  A
C1655      F1662   1.359       .  S
C1656      C1657   1.401       .  A
C1656      F1661   1.358       .  S
C1657      C1658   1.401       .  A
C1658      F1659   1.359       .  S
C1663      C1664   1.412       .  A
C1663      C1668   1.393   1_655  A
C1663      F1670   1.358       .  S
C1664      C1665   1.414       .  A
C1665      C1666   1.399       .  A
C1665      F1672   1.358       .  S
C1666      C1667   1.399   1_655  A
C1666      F1671   1.358   1_655  S
C1667      C1668   1.399       .  A
C1668      F1669   1.359       .  S
C1673      C1674   1.406       .  A
C1673      C1678   1.408       .  A
C1673      F1680   1.358   1_556  S
C1674      C1675   1.412       .  A
C1675      C1676   1.405       .  A
C1675      F1682   1.358       .  S
C1676      C1677   1.406       .  A
C1676      F1681   1.358       .  S
C1677      C1678   1.416       .  A
C1678      F1679   1.358       .  S
C1683      C1684   1.398       .  A
C1683      C1688   1.397   1_655  A
C1683      F1690   1.359       .  S
C1684      C1685   1.404       .  A
C1685      C1686   1.407   1_655  A
C1685      F1692   1.358       .  S
C1686      C1687   1.414       .  A
C1686      F1691   1.357       .  S
C1687      C1688   1.417       .  A
C1688      F1689   1.358       .  S
C1693      C1694   1.406       .  A
C1693      C1698   1.399       .  A
C1693      F1700   1.359       .  S
C1694      C1695   1.411       .  A
C1695      C1696   1.416       .  A
C1695      F1702   1.357       .  S
C1696      C1697   1.415       .  A
C1696      F1701   1.357       .  S
C1697      C1698   1.416       .  A
C1698      F1699   1.358       .  S
C1703      C1704   1.411       .  A
C1703      C1708   1.414       .  A
C1703      F1710   1.355       .  S
C1704      C1705   1.411       .  A
C1705      C1706   1.408       .  A
C1705      F1712   1.358       .  S
C1706      C1707   1.410       .  A
C1706      F1711   1.358       .  S
C1707      C1708   1.410       .  A
C1708      F1709   1.358       .  S
C1713      C1714   1.400       .  A
C1713      C1718   1.396       .  A
C1713      F1720   1.358       .  S
C1714      C1715   1.403       .  A
C1715      C1716   1.399       .  A
C1715      F1722   1.358       .  S
C1716      C1717   1.408       .  A
C1716      F1721   1.358       .  S
C1717      C1718   1.410       .  A
C1718      F1719   1.358       .  S
C1723      C1724   1.401       .  A
C1723      C1728   1.410       .  A
C1723      F1730   1.357       .  S
C1724      C1725   1.412       .  A
C1725      C1726   1.405       .  A
C1725      F1732   1.357       .  S
C1726      C1727   1.408       .  A
C1726      F1731   1.358       .  S
C1727      C1728   1.422       .  A
C1728      F1729   1.357       .  S
C1733      C1734   1.405       .  A
C1733      C1738   1.400       .  A
C1733      F1740   1.358       .  S
C1734      C1735   1.405       .  A
C1735      C1736   1.405       .  A
C1735      F1742   1.358       .  S
C1736      C1737   1.411       .  A
C1736      F1741   1.358       .  S
C1737      C1738   1.411       .  A
C1738      F1739   1.358       .  S
C1743      C1744   1.417       .  A
C1743      C1748   1.422       .  A
C1743      F1750   1.357       .  S
C1744      C1745   1.398       .  A
C1745      C1746   1.394       .  A
C1745      F1752   1.359       .  S
C1746      C1747   1.417       .  A
C1746      F1751   1.352       .  S
C1747      C1748   1.413       .  A
C1748      F1749   1.357       .  S
C1753      C1754   1.413       .  A
C1753      C1758   1.405       .  A
C1753      F1760   1.359       .  S
C1754      C1755   1.409       .  A
C1755      C1756   1.413       .  A
C1755      F1762   1.358       .  S
C1756      C1757   1.412       .  A
C1756      F1761   1.358       .  S
C1757      C1758   1.405       .  A
C1758      F1759   1.358       .  S
C1763      C1764   1.395       .  A
C1763      C1768   1.368       .  A
C1763      F1770   1.360       .  S
C1764      C1765   1.399       .  A
C1765      C1766   1.389       .  A
C1765      F1772   1.358       .  S
C1766      C1767   1.404       .  A
C1766      F1771   1.356       .  S
C1767      C1768   1.405       .  A
C1768      F1769   1.360       .  S
C1773      C1774   1.405       .  A
C1773      C1778   1.396       .  A
C1773      F1780   1.358       .  S
C1774      C1775   1.405       .  A
C1775      C1776   1.400       .  A
C1775      F1782   1.358       .  S
C1776      C1777   1.407       .  A
C1776      F1781   1.358       .  S
C1777      C1778   1.406       .  A
C1778      F1779   1.358       .  S
C1783      C1784   1.412       .  A
C1783      C1788   1.415       .  A
C1783      F1790   1.358       .  S
C1784      C1785   1.405       .  A
C1785      C1786   1.406       .  A
C1785      F1792   1.358       .  S
C1786      C1787   1.414       .  A
C1786      F1791   1.358       .  S
C1787      C1788   1.411       .  A
C1788      F1789   1.358       .  S
