geometry optimzed in LAMMPS
_audit_creation_date              2020-12-01 
_audit_creation_method            'lammps2cif' 
_symmetry_space_group_name_H-M    'P1' 
_symmetry_Int_Tables_number       1 
_symmetry_cell_setting            triclinic 
loop_ 
_symmetry_equiv_pos_as_xyz 
  x,y,z 
_cell_length_a                    46.85046918 
_cell_length_b                    46.751605860036456 
_cell_length_c                    30.211870101162777 
_cell_angle_alpha                 90.30488391009042 
_cell_angle_beta                  89.58420401017051 
_cell_angle_gamma                 119.81409397791913 
loop_ 
_atom_site_label 
_atom_site_type_symbol 
_atom_site_fract_x 
_atom_site_fract_y 
_atom_site_fract_z 
_atom_site_charge 
O1          O  0.92455470  0.30566254  0.24577887    -0.82200
C2          C  0.79629090  0.25155621  0.31446866     0.97100
O3          O  0.82178650  0.27601478  0.33129318    -0.71300
O4          O  0.87108259  0.26706140  0.34833902    -0.74900
Al5        Al  0.86873730  0.29896326  0.31494028     1.49000
C6          C  0.88926595  0.25498970  0.34131297     0.92400
O7          O  0.85578824  0.21981398  0.24286552    -0.81100
O8          O  0.85535579  0.29667115  0.18702233    -0.74700
Al9        Al  0.88917106  0.26402107  0.24570317     1.90100
O10         O  0.82334115  0.22850010  0.20127025    -0.73800
O11         O  0.82280445  0.30758396  0.25146881    -0.73600
O12         O  0.79704189  0.24191327  0.27539579    -0.79300
O13         O  0.86819826  0.33421240  0.28873776    -0.77500
O14         O  0.86164567  0.27716677  0.26461583    -1.13600
O15         O  0.91678855  0.32604286  0.30700084    -0.72800
C16         C  0.93458965  0.32836116  0.27367657     0.97900
C17         C  0.83588014  0.21050763  0.21126880     0.94300
Al18       Al  0.82712069  0.26903794  0.23138959     1.55600
O19         O  0.89975597  0.25450422  0.30292878    -0.77400
C20         C  0.84441336  0.33390852  0.27012170     0.98500
C21         C  0.87815233  0.29360408  0.16938265     0.93300
O22         O  0.88603998  0.27312736  0.18418962    -0.82800
O23         O  0.98804344  0.24846060  0.59391163    -0.82200
C24         C  0.92997080  0.12335720  0.51149935     0.97100
O25         O  0.95573538  0.14931254  0.49803591    -0.71300
O26         O  0.94898903  0.20120045  0.48555373    -0.74900
Al27       Al  0.97892426  0.19572581  0.51903697     1.49000
C28         C  0.93769572  0.22000389  0.49383492     0.92400
O29         O  0.89920294  0.18605034  0.58865099    -0.81100
O30         O  0.96838574  0.17350375  0.64548460    -0.74700
Al31       Al  0.94468482  0.21601719  0.58943916     1.90100
O32         O  0.90196376  0.14724350  0.62453430    -0.73800
O33         O  0.98059885  0.14418097  0.57773774    -0.73600
O34         O  0.91718994  0.12318326  0.54880454    -0.79300
O35         O  0.01186962  0.19212676  0.54737813    -0.77500
O36         O  0.95498761  0.18697620  0.56790616    -1.13600
O37         O  0.00740900  0.24326281  0.53053841    -0.72800
C38         C  0.01103016  0.25907483  0.56636331     0.97900
C39         C  0.88651504  0.16276056  0.61580846     0.94300
Al40       Al  0.94269594  0.14976765  0.59706614     1.55600
O41         O  0.93878684  0.23077070  0.53263163    -0.77400
C42         C  0.00815653  0.16542864  0.56115948     0.98500
C43         C  0.96715590  0.19646997  0.66595834     0.93300
O44         O  0.94976902  0.20798556  0.65088750    -0.82800
O45         O  0.94654423  0.34811038  0.92573763    -0.82200
C46         C  0.86835221  0.39518104  0.85466444     0.97100
O47         O  0.86969876  0.37011586  0.83987635    -0.71300
O48         O  0.92800926  0.37728649  0.82236618    -0.74900
Al49       Al  0.89344002  0.34738433  0.85916056     1.49000
C50         C  0.95832658  0.39438567  0.82974753     0.92400
O51         O  0.95678710  0.43107830  0.92699631    -0.81100
O52         O  0.88177441  0.35384129  0.98572312    -0.74700
Al53       Al  0.94885624  0.38780816  0.92552748     1.90100
O54         O  0.91621882  0.42129669  0.97038878    -0.73800
O55         O  0.83883191  0.34245804  0.91988386    -0.73600
O56         O  0.87803737  0.40631965  0.89356210    -0.79300
O57         O  0.85727789  0.31299710  0.88857075    -0.77500
O58         O  0.90795561  0.37194882  0.90743660    -1.13600
O59         O  0.91434094  0.32089524  0.87097676    -0.72800
C60         C  0.93296341  0.32276655  0.90244779     0.97900
C61         C  0.94645960  0.43949743  0.95988999     0.94300
Al62       Al  0.88089685  0.38049607  0.93977425     1.55600
O63         O  0.96865163  0.39834063  0.86876676    -0.77400
C64         C  0.83356550  0.31533681  0.90319684     0.98500
C65         C  0.90797502  0.35818666  0.00358300     0.93300
O66         O  0.93613554  0.37803244  0.98734657    -0.82800
O67         O  0.06806781  0.40096440  0.57909756    -0.82200
C68         C  0.13421954  0.52951482  0.65109063     0.97100
O69         O  0.13416273  0.50443808  0.66771402    -0.71300
O70         O  0.07465460  0.45486780  0.68292482    -0.74900
Al71       Al  0.11010082  0.45717468  0.65139592     1.49000
C72         C  0.04488818  0.43419479  0.67651146     0.92400
O73         O  0.04054642  0.46305134  0.57990630    -0.81100
O74         O  0.12095569  0.47316989  0.52228092    -0.74700
Al75       Al  0.05610684  0.43311542  0.58102341     1.90100
O76         O  0.08191179  0.50094605  0.54233886    -0.73800
O77         O  0.16324863  0.50314033  0.58600158    -0.73600
O78         O  0.12175126  0.52741842  0.61356521    -0.79300
O79         O  0.14656103  0.45837531  0.62515575    -0.77500
O80         O  0.09535742  0.46315456  0.60064455    -1.13600
O81         O  0.08994544  0.40889171  0.64491657    -0.72800
C82         C  0.07867210  0.39131296  0.61014994     0.97900
C83         C  0.05110447  0.48559096  0.55148140     0.94300
Al84       Al  0.11999186  0.49860523  0.56867737     1.55600
O85         O  0.03575095  0.42010615  0.63920585    -0.77400
C86         C  0.16889206  0.48177026  0.60388598     0.98500
C87         C  0.09634972  0.45257849  0.50106340     0.93300
O88         O  0.06793220  0.43899324  0.51853227    -0.82800
O89         O  0.01551918  0.26045283  0.90962869    -0.82200
C90         C  0.07424797  0.19018289  0.97840307     0.97100
O91         O  0.04911802  0.19040657  0.99435996    -0.71300
O92         O  0.06188116  0.25071671  0.01197129    -0.74900
Al93       Al  0.02819923  0.21659035  0.97972586     1.49000
C94         C  0.07119153  0.28071153  0.00629536     0.92400
O95         O  0.10420331  0.28594219  0.90920999    -0.81100
O96         O  0.03434856  0.20737571  0.84927785    -0.74700
Al97       Al  0.05929222  0.27146106  0.91072301     1.90100
O98         O  0.10064268  0.24495769  0.87009556    -0.73800
O99         O  0.02037683  0.16415256  0.91308371    -0.73600
O100        O  0.08570404  0.20329670  0.94121500    -0.79300
O101        O  0.99249263  0.18167684  0.95219838    -0.77500
O102        O  0.04933869  0.23168823  0.92900564    -1.13600
O103        O  0.00238448  0.23894250  0.97591249    -0.72800
C104        C  0.99647938  0.25125592  0.94221390     0.97900
C105        C  0.11587267  0.27575022  0.87966234     0.94300
Al106      Al  0.05974886  0.20686685  0.89607122     1.55600
O107        O  0.06704110  0.29086897  0.96937850    -0.77400
C108        C  0.99344999  0.15917060  0.93085534     0.98500
C109        C  0.03814752  0.23270494  0.82979524     0.93300
O110        O  0.05319090  0.26073219  0.84819525    -0.82800
O111        O  0.07937630  0.38676013  0.25934805    -0.82200
C112        C  0.20479485  0.45720452  0.17975141     0.97100
O113        O  0.17873749  0.45637290  0.16573729    -0.71300
O114        O  0.12979029  0.39631053  0.15186239    -0.74900
Al115      Al  0.13234206  0.43136431  0.18521654     1.49000
C116        C  0.11143913  0.36613330  0.15975287     0.92400
O117        O  0.14499951  0.36434389  0.25505394    -0.81100
O118        O  0.15232553  0.44376939  0.31206109    -0.74700
Al119      Al  0.11332362  0.37765410  0.25558038     1.90100
O120        O  0.18180446  0.40638235  0.29203700    -0.73800
O121        O  0.18029063  0.48588938  0.24598228    -0.73600
O122        O  0.20529000  0.44578399  0.21749557    -0.79300
O123        O  0.13296627  0.46742465  0.21316521    -0.77500
O124        O  0.14119281  0.41731376  0.23466966    -1.13600
O125        O  0.08471542  0.40993670  0.19502424    -0.72800
C126        C  0.06826305  0.39733711  0.23020567     0.97900
C127        C  0.16724047  0.37538982  0.28367226     0.94300
Al128      Al  0.17735081  0.44337925  0.26464052     1.55600
O129        O  0.10019962  0.35685012  0.19841126    -0.77400
C130        C  0.15804962  0.49091615  0.22977699     0.98500
C131        C  0.13068251  0.41925244  0.33304613     0.93300
O132        O  0.11981379  0.39051393  0.31746202    -0.82800
O133        O  0.11728734  0.70684691  0.81949962    -0.82200
C134        C  0.20428760  0.73003582  0.68257684     0.97100
O135        O  0.20373735  0.74146030  0.72047089    -0.71300
O136        O  0.17890075  0.75474297  0.79544105    -0.74900
Al137      Al  0.17614385  0.71469092  0.76678335     1.49000
C138        C  0.16387926  0.77078938  0.78815765     0.92400
O139        O  0.09674330  0.72144368  0.70216456    -0.81100
O140        O  0.08428340  0.65314305  0.69594434    -0.74700
Al141      Al  0.11047525  0.71365688  0.75862305     1.90100
O142        O  0.12743022  0.71322938  0.65465360    -0.73800
O143        O  0.13465683  0.64725770  0.71287186    -0.73600
O144        O  0.17853698  0.70505201  0.66729935    -0.79300
O145        O  0.18145225  0.67707271  0.74643042    -0.77500
O146        O  0.13972679  0.70377976  0.73673931    -1.13600
O147        O  0.15142802  0.68792604  0.81354645    -0.72800
C148        C  0.12867960  0.68930689  0.83418964     0.97900
C149        C  0.10811082  0.72385766  0.66342524     0.94300
Al150      Al  0.13192642  0.68162450  0.68648531     1.55600
O151        O  0.14076441  0.75917410  0.76061218    -0.77400
C152        C  0.16049987  0.65007280  0.72852979     0.98500
C153        C  0.06779899  0.64804474  0.73150715     0.93300
O154        O  0.07776728  0.66990210  0.76069318    -0.82800
O155        O  0.05999417  0.77852586  0.35132989    -0.82200
C156        C  0.07339976  0.86178111  0.48759719     0.97100
O157        O  0.08528420  0.86388330  0.44901673    -0.71300
O158        O  0.10286419  0.84166043  0.37375882    -0.74900
Al159      Al  0.06115882  0.83585469  0.40120109     1.49000
C160        C  0.12048347  0.82862019  0.38257792     0.92400
O161        O  0.07466105  0.76189332  0.47111263    -0.81100
O162        O  0.00070242  0.74277883  0.46805809    -0.74700
Al163      Al  0.06663050  0.77339940  0.41320502     1.90100
O164        O  0.05584471  0.78540997  0.51636920    -0.73800
O165        O  0.99276481  0.79126934  0.45019807    -0.73600
O166        O  0.04797252  0.83544416  0.50058607    -0.79300
O167        O  0.02162125  0.83893646  0.41863851    -0.77500
O168        O  0.05170629  0.79964864  0.43204803    -1.13600
O169        O  0.03675995  0.80971508  0.35298292    -0.72800
C170        C  0.04181198  0.78842320  0.33416582     0.97900
C171        C  0.07096636  0.76999228  0.50978355     0.94300
Al172      Al  0.02652267  0.78970193  0.47992977     1.55600
O173        O  0.11086515  0.80754242  0.41295676    -0.77400
C174        C  0.99428232  0.81633354  0.43368474     0.98500
C175        C  0.00065808  0.72595911  0.43507419     0.93300
O176        O  0.02514319  0.73680000  0.40990731    -0.82800
O177        O  0.88459271  0.58747624  0.68571754    -0.82200
C178        C  0.79939242  0.52599796  0.82510710     0.97100
O179        O  0.79964937  0.53738656  0.78715327    -0.71300
O180        O  0.82424214  0.57557207  0.71216371    -0.74900
Al181      Al  0.82658531  0.53753974  0.74024416     1.49000
C182        C  0.84059667  0.60670228  0.71990456     0.92400
O183        O  0.90798442  0.62320645  0.80400885    -0.81100
O184        O  0.91933093  0.56890895  0.81032514    -0.74700
Al185      Al  0.89285378  0.60123437  0.74727335     1.90100
O186        O  0.87521805  0.58548632  0.85083814    -0.73800
O187        O  0.86883984  0.51230199  0.79435777    -0.73600
O188        O  0.82489110  0.52598831  0.83967808    -0.79300
O189        O  0.82207588  0.49467795  0.75990344    -0.77500
O190        O  0.86343113  0.56274349  0.76947015    -1.13600
O191        O  0.84987963  0.53457685  0.69215078    -0.72800
C192        C  0.87022627  0.55859848  0.66954054     0.97900
C193        C  0.89585174  0.61499043  0.84257556     0.94300
Al194      Al  0.87135771  0.54927495  0.82000505     1.55600
O195        O  0.86321845  0.61692989  0.74776575    -0.77400
C196        C  0.84402196  0.48937402  0.77648641     0.98500
C197        C  0.93567099  0.57932134  0.77440738     0.93300
O198        O  0.92475159  0.58902296  0.74377715    -0.82800
O199        O  0.97345253  0.72352282  0.14391923    -0.82200
C200        C  0.92647724  0.78310010  0.02211752     0.97100
O201        O  0.92956936  0.78668255  0.06374376    -0.71300
O202        O  0.89883149  0.73368077  0.11925737    -0.74900
Al203      Al  0.94475109  0.77035952  0.11114009     1.49000
C204        C  0.89018392  0.70359893  0.12710598     0.92400
O205        O  0.92561753  0.68802879  0.03739544    -0.81100
O206        O  0.01629758  0.76471377  0.04465799    -0.74700
Al207      Al  0.94985240  0.70794604  0.09009316     1.90100
O208        O  0.96156424  0.72567760  0.99335241    -0.73800
O209        O  0.99703576  0.80978021  0.03950621    -0.73600
O210        O  0.93993847  0.76886608  0.00154956    -0.79300
O211        O  0.98987060  0.80905681  0.11050921    -0.77500
O212        O  0.95639528  0.74766632  0.07517799    -1.13600
O213        O  0.95766442  0.75881264  0.16384081    -0.72800
C214        C  0.97213451  0.74291161  0.17194342     0.97900
C215        C  0.93754697  0.69724814  0.99907691     0.94300
Al216      Al  0.97692247  0.76545397  0.02409709     1.55600
O217        O  0.91006796  0.69376781  0.11883020    -0.77400
C218        C  0.00720927  0.82262053  0.07633198     0.98500
C219        C  0.01584687  0.73918108  0.06002229     0.93300
O220        O  0.98894286  0.71299498  0.06493866    -0.82800
O221        O  0.06939420  0.61182209  0.02144124    -0.82200
C222        C  0.13697496  0.59078743  0.15531759     0.97100
O223        O  0.12584506  0.58056326  0.11705947    -0.71300
O224        O  0.08315094  0.56436748  0.04818360    -0.74900
Al225      Al  0.12260473  0.60598476  0.07078721     1.49000
C226        C  0.05249701  0.55028305  0.05863690     0.92400
O227        O  0.04036561  0.60607058  0.14122796    -0.81100
O228        O  0.09472296  0.66939994  0.14449614    -0.74700
Al229      Al  0.05968983  0.60983737  0.08356571     1.90100
O230        O  0.07821887  0.60835379  0.18504015    -0.73800
O231        O  0.15076026  0.67390204  0.12697523    -0.73600
O232        O  0.13690371  0.61612375  0.17111996    -0.79300
O233        O  0.16625432  0.64572201  0.08503428    -0.77500
O234        O  0.09892750  0.61853500  0.10265822    -1.13600
O235        O  0.12242353  0.63010907  0.02193194    -0.72800
C236        C  0.09693876  0.62520088  0.00205330     0.97900
C237        C  0.04887122  0.60061809  0.17836729     0.94300
Al238      Al  0.11398024  0.64013941  0.15307045     1.55600
O239        O  0.04320104  0.56435860  0.08596929    -0.77400
C240        C  0.17227652  0.67280745  0.10356466     0.98500
C241        C  0.08339844  0.67509501  0.10924599     0.93300
O242        O  0.07307111  0.65429270  0.07853226    -0.82800
O243        O  0.93087498  0.53957884  0.48242677    -0.82200
C244        C  0.87152675  0.45628280  0.34203692     0.97100
O245        O  0.88145649  0.45546286  0.38061248    -0.71300
O246        O  0.91828423  0.47906158  0.45613139    -0.74900
Al247      Al  0.88104520  0.48196448  0.42790581     1.49000
C248        C  0.94931682  0.49491251  0.44861144     0.92400
O249        O  0.96697623  0.56356598  0.36553416    -0.81100
O250        O  0.91374107  0.57517352  0.35777363    -0.74700
Al251      Al  0.94487723  0.54800995  0.42145679     1.90100
O252        O  0.92987538  0.53126705  0.31814451    -0.73800
O253        O  0.85615839  0.52492453  0.37441918    -0.73600
O254        O  0.87054196  0.48149782  0.32842401    -0.79300
O255        O  0.83866945  0.47742521  0.40738723    -0.77500
O256        O  0.90654185  0.51897691  0.39898757    -1.13600
O257        O  0.87808765  0.50562709  0.47612336    -0.72800
C258        C  0.90203914  0.52730369  0.49790246     0.97900
C259        C  0.95923601  0.55196786  0.32687868     0.94300
Al260      Al  0.89351107  0.52745287  0.34854785     1.55600
O261        O  0.96032407  0.51798390  0.42098043    -0.77400
C262        C  0.83304024  0.49903637  0.39034985     0.98500
C263        C  0.92520548  0.59190992  0.39295567     0.93300
O264        O  0.93306402  0.58021171  0.42470337    -0.82800
O265        O  0.66418314  0.57677654  0.24289600    -0.82200
C266        C  0.73443007  0.51938931  0.31392427     0.97100
O267        O  0.70973634  0.51941306  0.33158614    -0.71300
O268        O  0.72000651  0.57966211  0.34325670    -0.74900
Al269      Al  0.68583766  0.54244377  0.31606202     1.49000
C270        C  0.72554969  0.60836985  0.33536504     0.92400
O271        O  0.75492204  0.61137306  0.23557389    -0.81100
O272        O  0.68807974  0.52742751  0.18348707    -0.74700
Al273      Al  0.70949419  0.59281502  0.24104428     1.90100
O274        O  0.75444548  0.56879665  0.20364534    -0.73800
O275        O  0.67663424  0.48767017  0.25073904    -0.73600
O276        O  0.74296999  0.52989711  0.27504627    -0.79300
O277        O  0.64993539  0.50461052  0.29377300    -0.77500
O278        O  0.70390262  0.55528194  0.26274223    -1.13600
O279        O  0.65796055  0.56291977  0.31272690    -0.72800
C280        C  0.64913954  0.57247046  0.27877022     0.97900
C281        C  0.76833353  0.60000430  0.21030858     0.94300
Al282      Al  0.71489257  0.53039910  0.23089465     1.55600
O283        O  0.71810757  0.61539786  0.29818979    -0.77400
C284        C  0.65041972  0.48224960  0.27124840     0.98500
C285        C  0.68991481  0.55139801  0.16265894     0.93300
O286        O  0.70264559  0.57967047  0.17994677    -0.82800
O287        O  0.74638135  0.72075066  0.58660897    -0.82200
C288        C  0.87015138  0.78439809  0.50215412     0.97100
O289        O  0.84440158  0.78452458  0.48884622    -0.71300
O290        O  0.79167046  0.72675571  0.47714578    -0.74900
Al291      Al  0.79872032  0.76343366  0.51074219     1.49000
C292        C  0.77232040  0.69697617  0.48588710     0.92400
O293        O  0.80902667  0.69484439  0.58055955    -0.81100
O294        O  0.82210904  0.77752645  0.63781103    -0.74700
Al295      Al  0.77890883  0.71014644  0.58207098     1.90100
O296        O  0.84778913  0.73633128  0.61603347    -0.73800
O297        O  0.85088045  0.81747736  0.56995112    -0.73600
O298        O  0.87120650  0.77410796  0.54050640    -0.79300
O299        O  0.80376633  0.80142885  0.53773556    -0.77500
O300        O  0.80767034  0.74911231  0.55997510    -1.13600
O301        O  0.75162359  0.74566285  0.52380549    -0.72800
C302        C  0.73556261  0.73283354  0.55922480     0.97900
C303        C  0.83229521  0.70537487  0.60739230     0.94300
Al304      Al  0.84516194  0.77422354  0.58872151     1.55600
O305        O  0.76341063  0.68830303  0.52551243    -0.77400
C306        C  0.82949563  0.82390182  0.55454224     0.98500
C307        C  0.79994656  0.75361262  0.65899733     0.93300
O308        O  0.78710878  0.72441349  0.64380225    -0.82800
O309        O  0.73261076  0.73275686  0.90234503    -0.82200
C310        C  0.80093329  0.85775406  0.98443216     0.97100
O311        O  0.80016343  0.83158642  0.99807400    -0.71300
O312        O  0.74026041  0.78268505  0.01015372    -0.74900
Al313      Al  0.77524977  0.78525274  0.97768813     1.49000
C314        C  0.71041610  0.76371095  0.00211874     0.92400
O315        O  0.70915803  0.79798527  0.90642193    -0.81100
O316        O  0.79049300  0.80842446  0.84979304    -0.74700
Al317      Al  0.72291692  0.76662306  0.90591986     1.90100
O318        O  0.75183828  0.83631856  0.87143158    -0.73800
O319        O  0.83051998  0.83445677  0.91947291    -0.73600
O320        O  0.78910968  0.85818519  0.94708946    -0.79300
O321        O  0.81123743  0.78608062  0.95003643    -0.77500
O322        O  0.76198560  0.79457479  0.92784296    -1.13600
O323        O  0.75387486  0.73742539  0.96791385    -0.72800
C324        C  0.74299770  0.72163495  0.93189455     0.97900
C325        C  0.72079768  0.82120863  0.87906174     0.94300
Al326      Al  0.78838167  0.83160816  0.89915419     1.55600
O327        O  0.70087264  0.75231850  0.96341347    -0.77400
C328        C  0.83524744  0.81216562  0.93646018     0.98500
C329        C  0.76615701  0.78798461  0.82751521     0.93300
O330        O  0.73723953  0.77470871  0.84377238    -0.82800
O331        O  0.61353456  0.68562207  0.26647875    -0.82200
C332        C  0.53997881  0.73175482  0.17606166     0.97100
O333        O  0.54127170  0.70595302  0.16425034    -0.71300
O334        O  0.60128671  0.71649342  0.15311469    -0.74900
Al335      Al  0.56701159  0.68574878  0.18839123     1.49000
C336        C  0.63141603  0.72934593  0.16080957     0.92400
O337        O  0.62884808  0.77018796  0.25021254    -0.81100
O338        O  0.55127527  0.69775888  0.31279770    -0.74700
Al339      Al  0.61938078  0.72658737  0.25703576     1.90100
O340        O  0.58702502  0.76370518  0.28956721    -0.73800
O341        O  0.51035878  0.68053095  0.24351065    -0.73600
O342        O  0.55018910  0.74464496  0.21367885    -0.79300
O343        O  0.53145252  0.65145174  0.21788299    -0.77500
O344        O  0.57950189  0.71116564  0.23559535    -1.13600
O345        O  0.59044217  0.66137114  0.20444888    -0.72800
C346        C  0.60521435  0.66227007  0.24033261     0.97900
C347        C  0.61754466  0.78105348  0.27923312     0.94300
Al348      Al  0.55176907  0.72106941  0.26275914     1.55600
O349        O  0.64149134  0.73159719  0.20019791    -0.77400
C350        C  0.50675883  0.65299086  0.23004275     0.98500
C351        C  0.57653627  0.70480689  0.33511730     0.93300
O352        O  0.60529860  0.72261995  0.31903361    -0.82800
O353        O  0.59191067  0.65305565  0.57182506    -0.82200
C354        C  0.46732681  0.59178197  0.65397154     0.97100
O355        O  0.49280955  0.61743044  0.66783168    -0.71300
O356        O  0.54227605  0.60768854  0.67821357    -0.74900
Al357      Al  0.53858578  0.64007848  0.64789411     1.49000
C358        C  0.56285906  0.59874677  0.66950192     0.92400
O359        O  0.53028737  0.56398447  0.57366719    -0.81100
O360        O  0.51779984  0.63369521  0.51976851    -0.74700
Al361      Al  0.55994052  0.60924251  0.57447862     1.90100
O362        O  0.49097656  0.56691979  0.53967833    -0.73800
O363        O  0.48996927  0.64638418  0.58717310    -0.73600
O364        O  0.46647297  0.58109519  0.61507389    -0.79300
O365        O  0.53632302  0.67484707  0.62277468    -0.77500
O366        O  0.53052907  0.61858972  0.59706609    -1.13600
O367        O  0.58607596  0.66756015  0.63860296    -0.72800
C368        C  0.60274155  0.67313428  0.60315595     0.97900
C369        C  0.50712310  0.55183395  0.54638001     0.94300
Al370      Al  0.49383061  0.60750470  0.56773690     1.55600
O371        O  0.57482704  0.60214396  0.63090000    -0.77400
C372        C  0.51211953  0.67355477  0.60376223     0.98500
C373        C  0.54068565  0.63279855  0.49884854     0.93300
O374        O  0.55242536  0.61551420  0.51342172    -0.82800
O375        O  0.65696924  0.57858380  0.92097335    -0.82200
C376        C  0.59529917  0.45682229  0.83065313     0.97100
O377        O  0.62181333  0.48227649  0.81846222    -0.71300
O378        O  0.61718091  0.53512075  0.80980884    -0.74900
Al379      Al  0.64614410  0.52730457  0.84201710     1.49000
C380        C  0.60750432  0.55509436  0.81895026     0.92400
O381        O  0.56767683  0.51859847  0.91074180    -0.81100
O382        O  0.63266599  0.50038854  0.96877645    -0.74700
Al383      Al  0.61311651  0.54732369  0.91413363     1.90100
O384        O  0.56778377  0.47750782  0.94437615    -0.73800
O385        O  0.64579796  0.47326433  0.89955353    -0.73600
O386        O  0.58317006  0.45539831  0.86866044    -0.79300
O387        O  0.67796578  0.52090775  0.86841252    -0.77500
O388        O  0.62237572  0.51795378  0.89108604    -1.13600
O389        O  0.67554514  0.57411821  0.85619730    -0.72800
C390        C  0.67955985  0.58926968  0.89276624     0.97900
C391        C  0.55400678  0.49475179  0.93699480     0.94300
Al392      Al  0.60821193  0.47945601  0.91805672     1.55600
O393        O  0.60923936  0.56508996  0.85832902    -0.77400
C394        C  0.67391010  0.49459156  0.88455258     0.98500
C395        C  0.63011410  0.52193753  0.99096436     0.93300
O396        O  0.61590281  0.53647561  0.97481773    -0.82800
O397        O  0.45226672  0.37845479  0.48355868    -0.82200
C398        C  0.52719688  0.39111141  0.33960567     0.97100
O399        O  0.53063280  0.40426464  0.37744011    -0.71300
O400        O  0.51255978  0.42236168  0.45479676    -0.74900
Al401      Al  0.50713834  0.38075001  0.42779418     1.49000
C402        C  0.49878710  0.43917698  0.44554702     0.92400
O403        O  0.42846902  0.38947115  0.36562478    -0.81100
O404        O  0.41034120  0.31217966  0.37756827    -0.74700
Al405      Al  0.44306867  0.38327240  0.42233091     1.90100
O406        O  0.44649600  0.36604626  0.31957016    -0.73800
O407        O  0.46276654  0.30982703  0.38691332    -0.73600
O408        O  0.50074406  0.36440892  0.32932289    -0.79300
O409        O  0.51243575  0.34248666  0.40915230    -0.77500
O410        O  0.46855544  0.36824241  0.40156161    -1.13600
O411        O  0.48486115  0.35712126  0.47829586    -0.72800
C412        C  0.46344626  0.36082330  0.49938054     0.97900
C413        C  0.43386102  0.38376704  0.32647723     0.94300
Al414      Al  0.45609794  0.34042985  0.35663544     1.55600
O415        O  0.47636436  0.42748753  0.41734955    -0.77400
C416        C  0.49016990  0.31395157  0.39733647     0.98500
C417        C  0.39582821  0.31470496  0.41188481     0.93300
O418        O  0.40722157  0.34203123  0.43073567    -0.82800
O419        O  0.38076352  0.44228633  0.01381249    -0.82200
C420        C  0.41004154  0.53158454  0.15151937     0.97100
O421        O  0.41880837  0.53062768  0.11208124    -0.71300
O422        O  0.43005109  0.50404009  0.03715201    -0.74900
Al423      Al  0.39065439  0.50215953  0.06700910     1.49000
C424        C  0.44499079  0.48770378  0.04337046     0.92400
O425        O  0.39657179  0.42109665  0.13148896    -0.81100
O426        O  0.33233053  0.41138334  0.14304665    -0.74700
Al427      Al  0.38839846  0.43566148  0.07507944     1.90100
O428        O  0.39445504  0.45573929  0.17794459    -0.73800
O429        O  0.32591970  0.46205470  0.12836129    -0.73600
O430        O  0.38544509  0.50630381  0.16829749    -0.79300
O431        O  0.35281092  0.50668288  0.08831260    -0.77500
O432        O  0.38030765  0.46601149  0.09766116    -1.13600
O433        O  0.36307583  0.47768714  0.02008485    -0.72800
C434        C  0.36523428  0.45578266  0.99854081     0.97900
C435        C  0.40124944  0.43342673  0.16999335     0.94300
Al436      Al  0.36120555  0.45952403  0.15028250     1.55600
O437        O  0.43367076  0.46485198  0.07138272    -0.77400
C438        C  0.32650637  0.48534537  0.10760053     0.98500
C439        C  0.32529554  0.39413213  0.10783582     0.93300
O440        O  0.34456961  0.40432758  0.07546014    -0.82800
O441        O  0.24353478  0.25006677  0.37242509    -0.82200
C442        C  0.13059611  0.19093454  0.48671473     0.97100
O443        O  0.13255735  0.18997182  0.44525168    -0.71300
O444        O  0.15839338  0.24374523  0.39205393    -0.74900
Al445      Al  0.16613635  0.20624973  0.40143750     1.49000
C446        C  0.18035664  0.27300595  0.38173672     0.92400
O447        O  0.22685552  0.28883378  0.47332448    -0.81100
O448        O  0.24256901  0.21420049  0.48101371    -0.74700
Al449      Al  0.23332088  0.26740728  0.42368131     1.90100
O450        O  0.21843680  0.25125454  0.52287190    -0.73800
O451        O  0.18155210  0.16746194  0.47370739    -0.73600
O452        O  0.15676710  0.20355800  0.50951832    -0.79300
O453        O  0.16988982  0.16631860  0.40355642    -0.77500
O454        O  0.19939535  0.22809475  0.43912631    -1.13600
O455        O  0.19263538  0.21765148  0.35077902    -0.72800
C456        C  0.22307635  0.23239353  0.34329441     0.97900
C457        C  0.22522000  0.28008142  0.51324256     0.94300
Al458      Al  0.19976670  0.21082820  0.49201269     1.55600
O459        O  0.20982337  0.28206526  0.38975676    -0.77400
C460        C  0.17429103  0.15294900  0.43727290     0.98500
C461        C  0.26820457  0.23979462  0.46793471     0.93300
O462        O  0.26625166  0.26361357  0.45286337    -0.82800
O463        O  0.28390521  0.39757585  0.81396932    -0.82200
C464        C  0.26713203  0.45913460  0.67135364     0.97100
O465        O  0.25512070  0.44951068  0.70971390    -0.71300
O466        O  0.23851490  0.41161388  0.78533910    -0.74900
Al467      Al  0.27959889  0.44937065  0.75917911     1.49000
C468        C  0.22361787  0.38083051  0.77603216     0.92400
O469        O  0.27631272  0.36350326  0.69529736    -0.81100
O470        O  0.34665343  0.42117425  0.69951277    -0.74700
Al471      Al  0.28075064  0.38451042  0.75211964     1.90100
O472        O  0.29003867  0.40377406  0.64864686    -0.73800
O473        O  0.34964356  0.47604654  0.71275084    -0.73600
O474        O  0.29417986  0.46063993  0.65986734    -0.79300
O475        O  0.31783682  0.49287927  0.74136326    -0.77500
O476        O  0.29269045  0.42422573  0.73121528    -1.13600
O477        O  0.30387790  0.45125824  0.80941569    -0.72800
C478        C  0.30006521  0.42631782  0.83046307     0.97900
C479        C  0.27756781  0.37368519  0.65622295     0.94300
Al480      Al  0.31804665  0.43919868  0.68380393     1.55600
O481        O  0.23606553  0.37097705  0.74718676    -0.77400
C482        C  0.34603845  0.49895832  0.72741535     0.98500
C483        C  0.34814760  0.40792801  0.73543550     0.93300
O484        O  0.32335397  0.39399252  0.75988656    -0.82800
O485        O  0.26720934  0.20756586  0.15109513    -0.82200
C486        C  0.20271865  0.12421072  0.01407343     0.97100
O487        O  0.21473838  0.12363103  0.05137311    -0.71300
O488        O  0.25289161  0.14694842  0.12622905    -0.74900
Al489      Al  0.21494420  0.14943277  0.10010004     1.49000
C490        C  0.28358534  0.16180424  0.11681123     0.92400
O491        O  0.29819268  0.22985613  0.03166291    -0.81100
O492        O  0.24119241  0.24255847  0.03588872    -0.74700
Al493      Al  0.27918451  0.21530341  0.08967487     1.90100
O494        O  0.25728272  0.20247838  0.98642839    -0.73800
O495        O  0.18630491  0.19100708  0.05525194    -0.73600
O496        O  0.20083831  0.14941897  0.00194351    -0.79300
O497        O  0.17088536  0.14236842  0.08155943    -0.77500
O498        O  0.23930850  0.18674762  0.07045761    -1.13600
O499        O  0.21343426  0.17357012  0.14981034    -0.72800
C500        C  0.23892565  0.19601632  0.16857981     0.97900
C501        C  0.28725328  0.22167777  0.99263317     0.94300
Al502      Al  0.22268993  0.19556176  0.02352987     1.55600
O503        O  0.29407172  0.18427288  0.08806206    -0.77400
C504        C  0.16363164  0.16323920  0.06619686     0.98500
C505        C  0.25667779  0.25960002  0.06933232     0.93300
O506        O  0.26971785  0.24902121  0.09560957    -0.82800
O507        O  0.40063227  0.28580359  0.68737638    -0.82200
C508        C  0.45964581  0.25382751  0.82275547     0.97100
O509        O  0.44782541  0.24334239  0.78479183    -0.71300
O510        O  0.40832964  0.23178248  0.71383954    -0.74900
Al511      Al  0.44842624  0.27039611  0.73749510     1.49000
C512        C  0.37758017  0.21960667  0.72121617     0.92400
O513        O  0.36991978  0.27648739  0.80794919    -0.81100
O514        O  0.42766411  0.33874205  0.81368413    -0.74700
Al515      Al  0.38915515  0.28132818  0.74923209     1.90100
O516        O  0.40766977  0.27788912  0.85166345    -0.73800
O517        O  0.48129636  0.33949309  0.79109630    -0.73600
O518        O  0.46415817  0.28150418  0.83636759    -0.79300
O519        O  0.49305218  0.30675332  0.75263312    -0.77500
O520        O  0.42692929  0.28599250  0.76866969    -1.13600
O521        O  0.45159721  0.29575378  0.68811618    -0.72800
C522        C  0.42819939  0.29605722  0.66853882     0.97900
C523        C  0.37897947  0.27243916  0.84587308     0.94300
Al524      Al  0.44386254  0.30753875  0.81899911     1.55600
O525        O  0.36794561  0.23481579  0.74624313    -0.77400
C526        C  0.50150500  0.33496543  0.76933187     0.98500
C527        C  0.41700753  0.34635183  0.77988381     0.93300
O528        O  0.40592160  0.32683653  0.74781842    -0.82800
O529        O  0.54827132  0.92725205  0.01305592    -0.82200
C530        C  0.46724592  0.85924404  0.15137131     0.97100
O531        O  0.46640699  0.87073893  0.11391146    -0.71300
O532        O  0.48644622  0.90751787  0.03743492    -0.74900
Al533      Al  0.49378344  0.87303150  0.06675914     1.49000
C534        C  0.49905548  0.93827099  0.04593353     0.92400
O535        O  0.56664900  0.96272100  0.13214161    -0.81100
O536        O  0.58923460  0.91320559  0.13286040    -0.74700
Al537      Al  0.55422192  0.94115759  0.07494661     1.90100
O538        O  0.54158831  0.92210585  0.17895774    -0.73800
O539        O  0.54183264  0.85352485  0.11630023    -0.73600
O540        O  0.49406263  0.86137571  0.16544725    -0.79300
O541        O  0.49317489  0.83215084  0.08676318    -0.77500
O542        O  0.52958337  0.90109509  0.09600820    -1.13600
O543        O  0.51910229  0.87309490  0.01924631    -0.72800
C544        C  0.53855583  0.89846226  0.99785421     0.97900
C545        C  0.55704638  0.95236240  0.17116956     0.94300
Al546      Al  0.54075696  0.88850730  0.14478751     1.55600
O547        O  0.51981305  0.95038424  0.07622631    -0.77400
C548        C  0.51688877  0.82893305  0.10125712     0.98500
C549        C  0.60437824  0.92851431  0.09776825     0.93300
O550        O  0.58998203  0.93621608  0.07019324    -0.82800
O551        O  0.61679821  0.05713807  0.48271633    -0.82200
C552        C  0.59992400  0.12687526  0.34910091     0.97100
O553        O  0.58767051  0.11484905  0.38668947    -0.71300
O554        O  0.57169790  0.07536523  0.46047496    -0.74900
Al555      Al  0.61276213  0.11190470  0.43353637     1.49000
C556        C  0.55464373  0.04489179  0.45041198     0.92400
O557        O  0.60215635  0.02683090  0.36055965    -0.81100
O558        O  0.67267535  0.07943844  0.36089867    -0.74700
Al559      Al  0.60996509  0.04561395  0.41988530     1.90100
O560        O  0.61696060  0.06952470  0.31741380    -0.73800
O561        O  0.68135712  0.13583941  0.38562806    -0.73600
O562        O  0.62635296  0.12780061  0.33583695    -0.79300
O563        O  0.65149314  0.15457742  0.41555282    -0.77500
O564        O  0.62304843  0.08616352  0.40190507    -1.13600
O565        O  0.63775717  0.11105600  0.48091211    -0.72800
C566        C  0.63336734  0.08539155  0.50060878     0.97900
C567        C  0.60414404  0.03908627  0.32245029     0.94300
Al568      Al  0.64745799  0.10203620  0.35376915     1.55600
O569        O  0.56546391  0.03400773  0.42056571    -0.77400
C570        C  0.67891819  0.15953762  0.40010449     0.98500
C571        C  0.67389544  0.06297039  0.39321103     0.93300
O572        O  0.65202961  0.05212271  0.42226402    -0.82800
O573        O  0.78844443  0.03315576  0.14614422    -0.82200
C574        C  0.87378818  0.06099679  0.00358792     0.97100
O575        O  0.87335577  0.07233930  0.04152867    -0.71300
O576        O  0.84831612  0.08524777  0.11661600    -0.74900
Al577      Al  0.84783955  0.04554830  0.08954720     1.49000
C578        C  0.83027452  0.09847067  0.11101412     0.92400
O579        O  0.76275027  0.04376056  0.02763097    -0.81100
O580        O  0.75518738  0.98184235  0.01925411    -0.74700
Al581      Al  0.77918863  0.03796305  0.08498932     1.90100
O582        O  0.79741729  0.04185315  0.97987583    -0.73800
O583        O  0.80694293  0.97672562  0.03668872    -0.73600
O584        O  0.84918402  0.03422436  0.99025281    -0.79300
O585        O  0.85381958  0.00791945  0.07037320    -0.77500
O586        O  0.81039046  0.03197195  0.06132944    -1.13600
O587        O  0.82649337  0.01948683  0.13869138    -0.72800
C588        C  0.80435733  0.02004613  0.16147509     0.97900
C589        C  0.77485954  0.04816626  0.98863100     0.94300
Al590      Al  0.80296838  0.01033604  0.01054213     1.55600
O591        O  0.80553465  0.08417199  0.08630609    -0.77400
C592        C  0.83224813  0.97993511  0.05502462     0.98500
C593        C  0.73848099  0.97480567  0.05489643     0.93300
O594        O  0.75045324  0.99245007  0.08831819    -0.82800
O595        O  0.70941982  0.10629264  0.68867472    -0.82200
C596        C  0.73720806  0.19564279  0.82492795     0.97100
O597        O  0.74685888  0.19376710  0.78657209    -0.71300
O598        O  0.75934289  0.16779010  0.71310690    -0.74900
Al599      Al  0.71937366  0.16604774  0.74176305     1.49000
C600        C  0.77476174  0.15211769  0.72112806     0.92400
O601        O  0.72420139  0.08531629  0.80782075    -0.81100
O602        O  0.65838993  0.07565216  0.81646385    -0.74700
Al603      Al  0.71644129  0.09947581  0.75061946     1.90100
O604        O  0.71998897  0.11881042  0.85451615    -0.73800
O605        O  0.65306140  0.12682847  0.80116652    -0.73600
O606        O  0.71252760  0.17056507  0.84213382    -0.79300
O607        O  0.68120603  0.17145171  0.76181397    -0.77500
O608        O  0.70815785  0.12988439  0.77263090    -1.13600
O609        O  0.69269436  0.14203754  0.69527400    -0.72800
C610        C  0.69402397  0.12002648  0.67326613     0.97900
C611        C  0.72872375  0.09799042  0.84628466     0.94300
Al612      Al  0.68784954  0.12356903  0.82452491     1.55600
O613        O  0.76215333  0.12837240  0.74768088    -0.77400
C614        C  0.65444295  0.15074022  0.78105733     0.98500
C615        C  0.65166887  0.05911983  0.78060356     0.93300
O616        O  0.67238136  0.06821082  0.74993819    -0.82800
O617        O  0.74282877  0.94195210  0.35040796    -0.82200
C618        C  0.80271485  0.92076425  0.49283277     0.97100
O619        O  0.79166910  0.90903239  0.45492498    -0.71300
O620        O  0.75292077  0.89398836  0.38090184    -0.74900
Al621      Al  0.79182604  0.93458725  0.40663939     1.49000
C622        C  0.72189827  0.88052927  0.38912978     0.92400
O623        O  0.70805256  0.93688020  0.46870668    -0.81100
O624        O  0.75927204  0.99786220  0.47495220    -0.74700
Al625      Al  0.73031367  0.94015772  0.41202268     1.90100
O626        O  0.74360232  0.93833121  0.51631881    -0.73800
O627        O  0.81780928  0.00379582  0.45892332    -0.73600
O628        O  0.80350029  0.94709025  0.50623322    -0.79300
O629        O  0.83463268  0.97298846  0.42513219    -0.77500
O630        O  0.76737348  0.94750328  0.43528906    -1.13600
O631        O  0.79522168  0.95987816  0.35650887    -0.72800
C632        C  0.77142982  0.95710820  0.33403214     0.97900
C633        C  0.71488822  0.93232971  0.50774950     0.94300
Al634      Al  0.78041117  0.97010902  0.48542351     1.55600
O635        O  0.71171229  0.89453153  0.41516484    -0.77400
C636        C  0.84036430  0.00077391  0.44093235     0.98500
C637        C  0.74933522  0.00233689  0.43779544     0.93300
O638        O  0.74804282  0.98504673  0.40558008    -0.82800
O639        O  0.60000848  0.87588466  0.81670119    -0.82200
C640        C  0.54180564  0.79718049  0.67143523     0.97100
O641        O  0.55197013  0.79531520  0.70937215    -0.71300
O642        O  0.58877287  0.81650335  0.78522312    -0.74900
Al643      Al  0.55082023  0.81937039  0.75915228     1.49000
C644        C  0.61983440  0.83335267  0.77821793     0.92400
O645        O  0.63631832  0.90414967  0.69913561    -0.81100
O646        O  0.57857805  0.91486769  0.69924343    -0.74700
Al647      Al  0.61426158  0.88679615  0.75556239     1.90100
O648        O  0.59781783  0.87586885  0.65063621    -0.73800
O649        O  0.52344385  0.86232220  0.71175222    -0.73600
O650        O  0.54073447  0.82287937  0.65992028    -0.79300
O651        O  0.50711039  0.81396956  0.74064503    -0.77500
O652        O  0.57566930  0.85802393  0.73259201    -1.13600
O653        O  0.54728872  0.84012368  0.81026223    -0.72800
C654        C  0.57112455  0.86121412  0.83277871     0.97900
C655        C  0.62746777  0.89461120  0.65970486     0.94300
Al656      Al  0.56136031  0.86807906  0.68420312     1.55600
O657        O  0.63052609  0.85746142  0.75234868    -0.77400
C658        C  0.50065129  0.83578698  0.72625732     0.98500
C659        C  0.58955470  0.92948653  0.73605088     0.93300
O660        O  0.60232025  0.91881146  0.76270737    -0.82800
O661        O  0.25292841  0.98870947  0.91789165    -0.82200
C662        C  0.12979623  0.91548368  0.00128342     0.97100
O663        O  0.15327164  0.94279449  0.01506829    -0.71300
O664        O  0.20615997  0.93888607  0.02308663    -0.74900
Al665      Al  0.19887470  0.96948038  0.99464198     1.49000
C666        C  0.22975859  0.93446265  0.01452411     0.92400
O667        O  0.19794278  0.89729677  0.91678830    -0.81100
O668        O  0.17723553  0.96291890  0.86623098    -0.74700
Al669      Al  0.22419483  0.94367980  0.91943108     1.90100
O670        O  0.15589852  0.89695895  0.88546753    -0.73800
O671        O  0.14710797  0.97120686  0.93515837    -0.73600
O672        O  0.12965971  0.90644401  0.96164811    -0.79300
O673        O  0.19265127  0.00220408  0.97142180    -0.77500
O674        O  0.19249173  0.94908716  0.94307498    -1.13600
O675        O  0.24617427  0.00089859  0.98549566    -0.72800
C676        C  0.26293191  0.00828395  0.94985440     0.97900
C677        C  0.17385996  0.88370848  0.89075041     0.94300
Al678      Al  0.15508742  0.93514735  0.91442849     1.55600
O679        O  0.24110315  0.93855712  0.97537084    -0.77400
C680        C  0.16762885  0.99884900  0.95234322     0.98500
C681        C  0.20061959  0.96367697  0.84429040     0.93300
O682        O  0.21518901  0.94906942  0.85883915    -0.82800
O683        O  0.33633033  0.91871052  0.25305132    -0.82200
C684        C  0.26899474  0.79589999  0.16710822     0.97100
O685        O  0.29729065  0.81939822  0.15598068    -0.71300
O686        O  0.29497447  0.87351796  0.14379686    -0.74900
Al687      Al  0.32275862  0.86517504  0.17777718     1.49000
C688        C  0.28691288  0.89482035  0.15211888     0.92400
O689        O  0.24518902  0.86298786  0.24739083    -0.81100
O690        O  0.30737691  0.84087409  0.30405591    -0.74700
Al691      Al  0.29166067  0.88933629  0.24797756     1.90100
O692        O  0.24346979  0.82057497  0.27955594    -0.73800
O693        O  0.31853036  0.81103862  0.23695116    -0.73600
O694        O  0.25676364  0.79595520  0.20461226    -0.79300
O695        O  0.35346926  0.85847971  0.20757377    -0.77500
O696        O  0.29848563  0.85799462  0.22617983    -1.13600
O697        O  0.35336837  0.91207330  0.18855755    -0.72800
C698        C  0.35829663  0.92846025  0.22401213     0.97900
C699        C  0.23060103  0.83869774  0.27306317     0.94300
Al700      Al  0.28248032  0.81986511  0.25408192     1.55600
O701        O  0.28866151  0.90573781  0.19110257    -0.77400
C702        C  0.34752348  0.83152808  0.22372771     0.98500
C703        C  0.30722792  0.86404941  0.32544058     0.93300
O704        O  0.29431386  0.87968691  0.30901629    -0.82800
O705        O  0.33771170  0.91894223  0.57088199    -0.82200
C706        C  0.40353388  0.86092912  0.65679236     0.97100
O707        O  0.37645584  0.85875890  0.66937946    -0.71300
O708        O  0.38160556  0.91690673  0.67987868    -0.74900
Al709      Al  0.35195050  0.88027384  0.64781194     1.49000
C710        C  0.38924679  0.94602928  0.67090124     0.92400
O711        O  0.42832953  0.95089756  0.57596711    -0.81100
O712        O  0.36389818  0.86648441  0.52089671    -0.74700
Al713      Al  0.38241743  0.93282248  0.57537732     1.90100
O714        O  0.42873455  0.90936663  0.54342045    -0.73800
O715        O  0.35202270  0.82716391  0.58962019    -0.73600
O716        O  0.41531372  0.87235017  0.61896063    -0.79300
O717        O  0.31950181  0.84276487  0.62017594    -0.77500
O718        O  0.37489104  0.89489005  0.59824318    -1.13600
O719        O  0.32259024  0.89819621  0.63717824    -0.72800
C720        C  0.31674671  0.90849762  0.60141092     0.97900
C721        C  0.44213605  0.94049032  0.54976628     0.94300
Al722      Al  0.38912901  0.87079523  0.57047241     1.55600
O723        O  0.38672542  0.95438154  0.63189647    -0.77400
C724        C  0.32376876  0.82044835  0.60438800     0.98500
C725        C  0.36633844  0.89001947  0.49825357     0.93300
O726        O  0.37897046  0.91877190  0.51463223    -0.82800
O727        O  0.40408421  0.05477177  0.92627260    -0.82200
C728        C  0.52764306  0.11979641  0.84090326     0.97100
O729        O  0.50164017  0.11917605  0.82694866    -0.71300
O730        O  0.44988772  0.06084777  0.81585723    -0.74900
Al731      Al  0.45555481  0.09678953  0.84896747     1.49000
C732        C  0.42956224  0.03125065  0.82358644     0.92400
O733        O  0.46611343  0.02831554  0.91559546    -0.81100
O734        O  0.47819930  0.10909212  0.97781942    -0.74700
Al735      Al  0.43592449  0.04329449  0.91954399     1.90100
O736        O  0.50510482  0.06976127  0.95198816    -0.73800
O737        O  0.50560230  0.15103846  0.91050518    -0.73600
O738        O  0.52842147  0.10964071  0.87932343    -0.79300
O739        O  0.45931580  0.13360509  0.87545985    -0.77500
O740        O  0.46457113  0.08263990  0.89823717    -1.13600
O741        O  0.40801822  0.07831193  0.86255946    -0.72800
C742        C  0.39307939  0.06704216  0.89932664     0.97900
C743        C  0.48942173  0.03891170  0.94262172     0.94300
Al744      Al  0.50162464  0.10787355  0.92747821     1.55600
O745        O  0.41920509  0.02223564  0.86266123    -0.77400
C746        C  0.48380234  0.15642566  0.89379680     0.98500
C747        C  0.45778310  0.08405421  0.99914174     0.93300
O748        O  0.44503736  0.05555837  0.98187006    -0.82800
O749        O  0.26400640  0.00189998  0.60485950    -0.82200
C750        C  0.20490883  0.06275882  0.51009489     0.97100
O751        O  0.20450023  0.03631220  0.49884592    -0.71300
O752        O  0.26301111  0.04372630  0.49341225    -0.74900
Al753      Al  0.22583716  0.01329192  0.52387422     1.49000
C754        C  0.29211515  0.05269024  0.50365450     0.92400
O755        O  0.29105415  0.09190682  0.59635147    -0.81100
O756        O  0.20691969  0.02486885  0.64974017    -0.74700
Al757      Al  0.27559997  0.04630468  0.59871185     1.90100
O758        O  0.24756778  0.09014608  0.62608626    -0.73800
O759        O  0.16914323  0.01043609  0.57815738    -0.73600
O760        O  0.21327962  0.07440772  0.54867165    -0.79300
O761        O  0.18771655  0.98001510  0.54884751    -0.77500
O762        O  0.23771837  0.03644501  0.57348849    -1.13600
O763        O  0.24423238  0.98518857  0.53850721    -0.72800
C764        C  0.25377608  0.98006988  0.57536087     0.97900
C765        C  0.27879169  0.10490375  0.62088754     0.94300
Al766      Al  0.21134092  0.04917060  0.59851986     1.55600
O767        O  0.29962559  0.05135732  0.54355455    -0.77400
C768        C  0.16415909  0.98269535  0.56340927     0.98500
C769        C  0.23030941  0.02877892  0.67399107     0.93300
O770        O  0.25949558  0.04268453  0.65882440    -0.82800
O771        O  0.40075633  0.06429513  0.25101188    -0.82200
C772        C  0.46187568  0.19052636  0.32746179     0.97100
O773        O  0.46293935  0.16560122  0.34235273    -0.71300
O774        O  0.40773354  0.11146048  0.35687907    -0.74900
Al775      Al  0.44415867  0.11973268  0.32258807     1.49000
C776        C  0.37784532  0.09227016  0.34962871     0.92400
O777        O  0.37223866  0.12574654  0.25011284    -0.81100
O778        O  0.45509517  0.13890670  0.19301416    -0.74700
Al779      Al  0.38901857  0.09637436  0.25267557     1.90100
O780        O  0.41394849  0.16433715  0.21411946    -0.73800
O781        O  0.49635034  0.17139955  0.26040634    -0.73600
O782        O  0.45194359  0.19045218  0.28847227    -0.79300
O783        O  0.48272358  0.12608038  0.29606380    -0.77500
O784        O  0.42824692  0.12655766  0.27280735    -1.13600
O785        O  0.42912077  0.07306887  0.31156905    -0.72800
C786        C  0.41597652  0.05605757  0.27712984     0.97900
C787        C  0.38303053  0.14862841  0.22202070     0.94300
Al788      Al  0.45225385  0.16331988  0.24163550     1.55600
O789        O  0.36818714  0.08280927  0.31046791    -0.77400
C790        C  0.50439960  0.15213762  0.27902432     0.98500
C791        C  0.43052772  0.11641566  0.17295936     0.93300
O792        O  0.40212006  0.10266383  0.19066123    -0.82800
C793        C  0.36600576  0.09994421  0.42788662    -0.06200
C794        C  0.35498106  0.08101396  0.38858931    -0.00300
C795        C  0.32428031  0.05126372  0.38931336    -0.08800
C796        C  0.30536422  0.04275359  0.42840277    -0.06200
C797        C  0.31606695  0.06233048  0.46683118    -0.00300
C798        C  0.34710178  0.09118320  0.46704364    -0.08700
C799        C  0.35967603  0.11311993  0.50775612     0.61600
H800        H  0.38977705  0.12196498  0.42787977     0.12300
H801        H  0.28154645  0.02050922  0.42925649     0.12300
C802        C  0.31151464  0.02800479  0.34987357     0.61900
F803        F  0.38997623  0.14080674  0.50028115    -0.23300
F804        F  0.36315831  0.09588223  0.54236222    -0.20600
F805        F  0.33772525  0.12347544  0.51986769    -0.20300
F806        F  0.33460138  0.01938308  0.33678648    -0.20400
F807        F  0.30504511  0.04312671  0.31524587    -0.20700
F808        F  0.28267808  0.99918457  0.35975949    -0.23400
C809        C  0.42896917  0.10354747  0.04841595    -0.06200
C810        C  0.44853778  0.08873833  0.04423638    -0.00300
C811        C  0.46135915  0.08198483  0.08246402    -0.08800
C812        C  0.45482860  0.09131333  0.12412505    -0.06200
C813        C  0.43518293  0.10614294  0.12833193    -0.00300
C814        C  0.42159454  0.11197567  0.09004729    -0.08700
C815        C  0.40076021  0.12847425  0.09301199     0.61600
H816        H  0.42009246  0.10913683  0.01852637     0.12300
H817        H  0.46514954  0.08724443  0.15379673     0.12300
C818        C  0.48238719  0.06572785  0.07884579     0.61900
F819        F  0.39039982  0.13226381  0.05175402    -0.23300
F820        F  0.41892732  0.15934434  0.11195242    -0.20600
F821        F  0.37310155  0.10963532  0.11858736    -0.20300
F822        F  0.51001047  0.08502571  0.05336609    -0.20400
F823        F  0.46446755  0.03509090  0.05916208    -0.20700
F824        F  0.49262204  0.06142702  0.11991099    -0.23400
C825        C  0.26230734  0.93496596  0.54702069    -0.06200
C826        C  0.25618207  0.94990779  0.58322162    -0.00300
C827        C  0.25816593  0.93894283  0.62635026    -0.08800
C828        C  0.27560024  0.92193609  0.63210465    -0.06200
C829        C  0.28734944  0.91232400  0.59562090    -0.00300
C830        C  0.27610539  0.91459300  0.55289637    -0.08700
C831        C  0.27869674  0.89686183  0.51249161     0.61600
H832        H  0.25798332  0.94049851  0.51375518     0.12300
H833        H  0.28158233  0.91789955  0.66525840     0.12300
C834        C  0.24304257  0.94476086  0.66719075     0.61900
F835        F  0.24792804  0.87880650  0.49354686    -0.23300
F836        F  0.28991276  0.87529091  0.52218309    -0.20600
F837        F  0.29956835  0.91991288  0.48232368    -0.20300
F838        F  0.22289452  0.95769004  0.65779666    -0.20400
F839        F  0.26804538  0.96579877  0.69476628    -0.20700
F840        F  0.22406755  0.91512966  0.68889188    -0.23400
C841        C  0.37814045  0.96012498  0.74469808    -0.06200
C842        C  0.39921850  0.96942065  0.70780637    -0.00300
C843        C  0.42995679  0.99849069  0.70891704    -0.08800
C844        C  0.43889402  0.01731076  0.74786447    -0.06200
C845        C  0.41812781  0.00807822  0.78545012    -0.00300
C846        C  0.38678755  0.97914237  0.78360247    -0.08700
C847        C  0.36217049  0.96850137  0.82156520     0.61600
H848        H  0.35468738  0.93750464  0.74269318     0.12300
H849        H  0.46246543  0.03958658  0.74909618     0.12300
C850        C  0.45354064  0.00885399  0.66978681     0.61900
F851        F  0.33226595  0.94138044  0.81050213    -0.23300
F852        F  0.35634968  0.99387173  0.83284394    -0.20600
F853        F  0.37430749  0.96008112  0.85778012    -0.20300
F854        F  0.43949730  0.01479075  0.63343356    -0.20400
F855        F  0.46057309  0.98410944  0.65972257    -0.20700
F856        F  0.48288666  0.03730374  0.67850077    -0.23400
C857        C  0.33155926  0.85016727  0.38742128    -0.06200
C858        C  0.32248873  0.87227313  0.36980076    -0.00300
C859        C  0.33028522  0.90163847  0.39349437    -0.08800
C860        C  0.34635315  0.90701594  0.43419643    -0.06200
C861        C  0.35367848  0.88396425  0.45263346    -0.00300
C862        C  0.34777555  0.85572604  0.42778894    -0.08700
C863        C  0.35959091  0.83206747  0.44187716     0.61600
H864        H  0.32575222  0.82794036  0.36925629     0.12300
H865        H  0.35272067  0.92925457  0.45265925     0.12300
C866        C  0.32170182  0.92723415  0.37722214     0.61900
F867        F  0.35703308  0.81088319  0.40794919    -0.23300
F868        F  0.34099662  0.81289615  0.47695597    -0.20600
F869        F  0.39233496  0.84960568  0.45387601    -0.20300
F870        F  0.28795752  0.91311503  0.37334208    -0.20400
F871        F  0.33654766  0.93961689  0.33688326    -0.20700
F872        F  0.33235309  0.95377179  0.40588980    -0.23400
C873        C  0.39780683  0.96797362  0.27747636    -0.06200
C874        C  0.38813764  0.96071125  0.23276193    -0.00300
C875        C  0.39992587  0.98688220  0.20211996    -0.08800
C876        C  0.41543098  0.01921961  0.21871694    -0.06200
C877        C  0.41686566  0.02570284  0.26456147    -0.00300
C878        C  0.41122590  0.00027619  0.29441162    -0.08700
C879        C  0.41684771  0.00656039  0.34368762     0.61600
H880        H  0.39055100  0.94757682  0.30011205     0.12300
H881        H  0.42213853  0.03944628  0.19600909     0.12300
C882        C  0.39260174  0.98098243  0.15308740     0.61900
F883        F  0.41142348  0.97855009  0.36622070    -0.23300
F884        F  0.39575840  0.01655424  0.36081489    -0.20600
F885        F  0.44903500  0.03089060  0.35100201    -0.20300
F886        F  0.35912542  0.96695975  0.14646297    -0.20400
F887        F  0.40332762  0.96018363  0.13698021    -0.20700
F888        F  0.40822406  0.01000166  0.12908307    -0.23400
C889        C  0.18819821  0.99078210  0.78354529    -0.06200
C890        C  0.21011322  0.98151359  0.80126625    -0.00300
C891        C  0.24036970  0.99111079  0.77874790    -0.08800
C892        C  0.24672126  0.00883332  0.73906352    -0.06200
C893        C  0.22356621  0.01556224  0.71973439    -0.00300
C894        C  0.19429942  0.00775832  0.74337561    -0.08700
C895        C  0.16969620  0.01771348  0.72750092     0.61600
H896        H  0.16547670  0.98397790  0.80104670     0.12300
H897        H  0.26961640  0.01646080  0.72163136     0.12300
C898        C  0.26584469  0.98245512  0.79501654     0.61900
F899        F  0.14713677  0.01372598  0.76020003    -0.23300
F900        F  0.15229872  0.99844660  0.69178719    -0.20600
F901        F  0.18601754  0.05062396  0.71551835    -0.20300
F902        F  0.25262579  0.94860660  0.79467939    -0.20400
F903        F  0.27573432  0.99442517  0.83712362    -0.20700
F904        F  0.29392676  0.99606981  0.76890913    -0.23400
C905        C  0.30487672  0.05072673  0.90085890    -0.06200
C906        C  0.29614151  0.03768118  0.94412658    -0.00300
C907        C  0.32142837  0.04549008  0.97494631    -0.08800
C908        C  0.35396012  0.06042753  0.95915410    -0.06200
C909        C  0.36167490  0.06568652  0.91342887    -0.00300
C910        C  0.33734590  0.06397703  0.88441246    -0.08700
C911        C  0.34486132  0.07406059  0.83626639     0.61600
H912        H  0.28526815  0.04655991  0.87836841     0.12300
H913        H  0.37319619  0.06439843  0.98212112     0.12300
C914        C  0.31412951  0.03493808  0.02303779     0.61900
F915        F  0.31809360  0.07267537  0.81505662    -0.23300
F916        F  0.35321354  0.05327008  0.81418694    -0.20600
F917        F  0.37070643  0.10612063  0.83363627    -0.20300
F918        F  0.29832331  0.00095080  0.02579620    -0.20400
F919        F  0.29432067  0.04614102  0.04128393    -0.20700
F920        F  0.34255663  0.04758297  0.04798961    -0.23400
C921        C  0.26775315  0.91582312  0.03923033    -0.06200
C922        C  0.24477306  0.92553672  0.05085574    -0.00300
C923        C  0.23842455  0.92829042  0.09657940    -0.08800
C924        C  0.25230829  0.91715217  0.12805598    -0.06200
C925        C  0.27439730  0.90651983  0.11622355    -0.00300
C926        C  0.28384840  0.90755470  0.07124407    -0.08700
C927        C  0.31153901  0.90143239  0.05662208     0.61600
H928        H  0.27339021  0.91500365  0.00459084     0.12300
H929        H  0.24604796  0.91683241  0.16269202     0.12300
C930        C  0.21896776  0.94443538  0.11343149     0.61900
F931        F  0.32113061  0.91127215  0.01330830    -0.23300
F932        F  0.30152391  0.86827499  0.05935804    -0.20600
F933        F  0.33882374  0.91918548  0.08298384    -0.20300
F934        F  0.18618972  0.92574091  0.10233581    -0.20400
F935        F  0.23201246  0.97570362  0.09572106    -0.20700
F936        F  0.22032123  0.94785755  0.15906425    -0.23400
C937        C  0.46319888  0.85797175  0.73960642    -0.06200
C938        C  0.46709863  0.83203974  0.72213276    -0.00300
C939        C  0.44501529  0.81192715  0.68866707    -0.08800
C940        C  0.42264219  0.82069377  0.67049015    -0.06200
C941        C  0.42134057  0.84865763  0.68490949    -0.00300
C942        C  0.44076761  0.86668593  0.72145091    -0.08700
C943        C  0.43936026  0.89640769  0.73895527     0.61600
H944        H  0.48028829  0.87350385  0.76483580     0.12300
H945        H  0.40741657  0.80694148  0.64270674     0.12300
C946        C  0.44684100  0.78287904  0.66969188     0.61900
F947        F  0.46001746  0.91068428  0.77474530    -0.23300
F948        F  0.40760126  0.88687848  0.75243504    -0.20600
F949        F  0.44868202  0.91987245  0.70601091    -0.20300
F950        F  0.44562317  0.76267430  0.70375952    -0.20400
F951        F  0.47578739  0.79398848  0.64620813    -0.20700
F952        F  0.42098440  0.76429939  0.64133213    -0.23400
C953        C  0.64309599  0.91721985  0.58439544    -0.06200
C954        C  0.65110964  0.90560361  0.62246792    -0.00300
C955        C  0.67854044  0.90085325  0.62171437    -0.08800
C956        C  0.69788335  0.90917884  0.58311843    -0.06200
C957        C  0.69055763  0.92155528  0.54495968    -0.00300
C958        C  0.66223195  0.92531449  0.54542615    -0.08700
C959        C  0.65225923  0.93830844  0.50591267     0.61600
H960        H  0.62138304  0.91982472  0.58556441     0.12300
H961        H  0.71914240  0.90596605  0.58266447     0.12300
C962        C  0.68655791  0.88578116  0.66072984     0.61900
F963        F  0.62416065  0.94022082  0.51435728    -0.23300
F964        F  0.64581199  0.91755022  0.46998287    -0.20600
F965        F  0.67724622  0.96963939  0.49550402    -0.20300
F966        F  0.65967265  0.85548384  0.67080013    -0.20400
F967        F  0.69454875  0.90635968  0.69710307    -0.20700
F968        F  0.71284179  0.88093286  0.65179022    -0.23400
C969        C  0.58657670  0.16204407  0.83096225    -0.06200
C970        C  0.55876113  0.13403187  0.81412216    -0.00300
C971        C  0.56306084  0.11718815  0.77798898    -0.08800
C972        C  0.59531970  0.12648507  0.76350240    -0.06200
C973        C  0.62351811  0.15276696  0.78290863    -0.00300
C974        C  0.61882312  0.17188917  0.81572661    -0.08700
C975        C  0.64791834  0.20121073  0.83685866     0.61600
H976        H  0.58301153  0.17490949  0.85847013     0.12300
H977        H  0.59873945  0.11105348  0.73979474     0.12300
C978        C  0.53379044  0.08807488  0.75696195     0.61900
F979        F  0.63813806  0.21786525  0.86571259    -0.23300
F980        F  0.66719597  0.22297665  0.80424249    -0.20600
F981        F  0.66636319  0.19087993  0.86027094    -0.20300
F982        F  0.51220654  0.09788817  0.74179527    -0.20400
F983        F  0.51807439  0.06327407  0.78788833    -0.20700
F984        F  0.54301192  0.07559665  0.72141500    -0.23400
C985        C  0.60987542  0.00332785  0.80596679    -0.06200
C986        C  0.62099095  0.02738224  0.77312591    -0.00300
C987        C  0.60889527  0.01743712  0.72931514    -0.08800
C988        C  0.59555992  0.98417082  0.71709055    -0.06200
C989        C  0.59006206  0.96055247  0.74899434    -0.00300
C990        C  0.59206060  0.96981954  0.79434641    -0.08700
C991        C  0.57592796  0.94491880  0.83069351     0.61600
H992        H  0.61648218  0.01042767  0.84021495     0.12300
H993        H  0.59122165  0.97713940  0.68248851     0.12300
C994        C  0.61073896  0.04113494  0.69426545     0.61900
F995        F  0.55988400  0.95526821  0.85972383    -0.23300
F996        F  0.59954141  0.94156613  0.85351949    -0.20600
F997        F  0.55269600  0.91493957  0.81332046    -0.20300
F998        F  0.63076906  0.04162856  0.66030849    -0.20400
F999        F  0.62256430  0.07269025  0.71061482    -0.20700
F1000       F  0.57956366  0.03040913  0.67772180    -0.23400
C1001       C  0.76425677  0.99105973  0.22159693    -0.06200
C1002       C  0.79668655  0.00465065  0.20593943    -0.00300
C1003       C  0.82039625  0.00214814  0.23219498    -0.08800
C1004       C  0.81037155  0.98571450  0.27284165    -0.06200
C1005       C  0.77795191  0.97206696  0.28891709    -0.00300
C1006       C  0.75424635  0.97476664  0.26264342    -0.08700
C1007       C  0.71872953  0.96126314  0.27731631     0.61600
H1008       H  0.74653288  0.99299774  0.20088380     0.12300
H1009       H  0.82829963  0.98341724  0.29255910     0.12300
C1010       C  0.85640147  0.01701299  0.21850841     0.61900
F1011       F  0.70045551  0.96687815  0.24629300    -0.23300
F1012       F  0.71784313  0.97647420  0.31620482    -0.20600
F1013       F  0.70377408  0.92757806  0.28357499    -0.20300
F1014       F  0.86913529  0.04965541  0.20668457    -0.20400
F1015       F  0.85922207  0.99956762  0.18330334    -0.20700
F1016       F  0.87563252  0.01613198  0.25247951    -0.23400
C1017       C  0.74044620  0.05614625  0.87825690    -0.06200
C1018       C  0.74237806  0.08695004  0.88284277    -0.00300
C1019       C  0.75581150  0.10533901  0.92267579    -0.08800
C1020       C  0.76485618  0.09111505  0.95701256    -0.06200
C1021       C  0.76255093  0.06026553  0.95226012    -0.00300
C1022       C  0.75072956  0.04262895  0.91187596    -0.08700
C1023       C  0.74840871  0.00936873  0.90417131     0.61600
H1024       H  0.73052608  0.04243887  0.84790288     0.12300
H1025       H  0.77458088  0.10436969  0.98776284     0.12300
C1026       C  0.76167700  0.14016258  0.92913768     0.61900
F1027       F  0.73272188  0.99495284  0.86484461    -0.23300
F1028       F  0.73075165  0.98804710  0.93809797    -0.20600
F1029       F  0.77959214  0.01317754  0.90218197    -0.20300
F1030       F  0.73197775  0.13936896  0.93478271    -0.20400
F1031       F  0.77817848  0.15938032  0.89282505    -0.20700
F1032       F  0.78067510  0.15523406  0.96610147    -0.23400
C1033       C  0.68046467  0.08695119  0.60390127    -0.06200
C1034       C  0.67723241  0.11044038  0.62951420    -0.00300
C1035       C  0.65722500  0.12326543  0.61322620    -0.08800
C1036       C  0.64205257  0.11230140  0.57215112    -0.06200
C1037       C  0.64601760  0.08967760  0.54627482    -0.00300
C1038       C  0.66478129  0.07591023  0.56270091    -0.08700
C1039       C  0.66983333  0.05119632  0.53621053     0.61600
H1040       H  0.69547477  0.07718735  0.61644023     0.12300
H1041       H  0.62725047  0.12211243  0.55893481     0.12300
C1042       C  0.65165930  0.14876225  0.63760401     0.61900
F1043       F  0.68828146  0.04041305  0.55893666    -0.23300
F1044       F  0.68634686  0.06590314  0.49764884    -0.20600
F1045       F  0.63982652  0.02389839  0.52640608    -0.20300
F1046       F  0.68125629  0.17767320  0.64296593    -0.20400
F1047       F  0.63727439  0.13655724  0.67823531    -0.20700
F1048       F  0.63087817  0.15663470  0.61499230    -0.23400
C1049       C  0.57641734  0.16388855  0.34398444    -0.06200
C1050       C  0.58358499  0.14153110  0.32246098    -0.00300
C1051       C  0.57149062  0.13114113  0.27897091    -0.08800
C1052       C  0.54859005  0.13950507  0.26151362    -0.06200
C1053       C  0.53878171  0.15914376  0.28530094    -0.00300
C1054       C  0.55530295  0.17387616  0.32534765    -0.08700
C1055       C  0.54753943  0.19667643  0.35186404     0.61600
H1056       H  0.58628753  0.17244353  0.37680814     0.12300
H1057       H  0.53594294  0.12831959  0.23092197     0.12300
C1058       C  0.58122343  0.10986600  0.25226343     0.61900
F1059       F  0.57397375  0.21763839  0.37801599    -0.23300
F1060       F  0.52069948  0.17833107  0.37896443    -0.20600
F1061       F  0.54094869  0.21590532  0.32388379    -0.20300
F1062       F  0.57152248  0.08056099  0.27419740    -0.20400
F1063       F  0.61497822  0.12655681  0.24652024    -0.20700
F1064       F  0.56689291  0.10254119  0.21079587    -0.23400
C1065       C  0.50649459  0.98779435  0.45782272    -0.06200
C1066       C  0.52416348  0.02002734  0.47552404    -0.00300
C1067       C  0.51458878  0.02547364  0.51810435    -0.08800
C1068       C  0.48899748  0.99849709  0.54140526    -0.06200
C1069       C  0.47191487  0.96605225  0.52414023    -0.00300
C1070       C  0.48066205  0.96096125  0.48077460    -0.08700
C1071       C  0.46224348  0.92786945  0.45743078     0.61600
H1072       H  0.51324893  0.98353233  0.42515411     0.12300
H1073       H  0.48196556  0.00275502  0.57388208     0.12300
C1074       C  0.53124287  0.05936475  0.53950541     0.61900
F1075       F  0.47460506  0.92855033  0.41542601    -0.23300
F1076       F  0.42966745  0.91928378  0.45291425    -0.20600
F1077       F  0.46460091  0.90405527  0.48144955    -0.20300
F1078       F  0.52894510  0.08168103  0.51197374    -0.20400
F1079       F  0.56393450  0.06943508  0.54726413    -0.20700
F1080       F  0.51684489  0.05953214  0.57962154    -0.23400
C1081       C  0.72655846  0.06978282  0.42199273    -0.06200
C1082       C  0.69788882  0.05166339  0.39637700    -0.00300
C1083       C  0.68667143  0.01820024  0.38698589    -0.08800
C1084       C  0.70293198  0.00341233  0.40577807    -0.06200
C1085       C  0.73196065  0.02103056  0.43035110    -0.00300
C1086       C  0.74420434  0.05484598  0.43894769    -0.08700
C1087       C  0.77482344  0.07435653  0.46642553     0.61600
H1088       H  0.73396749  0.09506410  0.43044772     0.12300
H1089       H  0.69273190  0.97716954  0.40086358     0.12300
C1090       C  0.65558433  0.99666087  0.36083063     0.61900
F1091       F  0.78219360  0.10673816  0.47190384    -0.23300
F1092       F  0.80129876  0.07431725  0.44595816    -0.20600
F1093       F  0.77010575  0.06016923  0.50783658    -0.20300
F1094       F  0.65327602  0.01384838  0.32543158    -0.20400
F1095       F  0.62841257  0.98637344  0.38803997    -0.20700
F1096       F  0.65542560  0.96898365  0.34393088    -0.23400
C1097       C  0.53395889  0.86970950  0.88145565    -0.06200
C1098       C  0.56418363  0.87040517  0.87676649    -0.00300
C1099       C  0.58673955  0.88152711  0.91250237    -0.08800
C1100       C  0.57840467  0.89271018  0.95119436    -0.06200
C1101       C  0.54885178  0.89331650  0.95440579    -0.00300
C1102       C  0.52643237  0.88214474  0.91911496    -0.08700
C1103       C  0.49503280  0.88412341  0.92109141     0.61600
H1104       H  0.51668065  0.86070215  0.85429330     0.12300
H1105       H  0.59447635  0.90033070  0.97970039     0.12300
C1106       C  0.61841058  0.88005448  0.91095115     0.61900
F1107       F  0.47797936  0.87459563  0.88157123    -0.23300
F1108       F  0.50281066  0.91627192  0.92986475    -0.20600
F1109       F  0.47450466  0.86381711  0.95410133    -0.20300
F1110       F  0.64053872  0.90352638  0.88198833    -0.20400
F1111       F  0.61181864  0.84907263  0.89724856    -0.20700
F1112       F  0.63316574  0.88602586  0.95210586    -0.23400
C1113       C  0.37569038  0.80943568  0.18011607    -0.06200
C1114       C  0.37479405  0.82423705  0.22007717    -0.00300
C1115       C  0.40486553  0.84463741  0.24216926    -0.08800
C1116       C  0.43495079  0.85335867  0.22058954    -0.06200
C1117       C  0.43581144  0.84256315  0.17741823    -0.00300
C1118       C  0.40557393  0.81879110  0.15771409    -0.08700
C1119       C  0.40417132  0.80489057  0.11171690     0.61600
H1120       H  0.35258239  0.79423523  0.16325103     0.12300
H1121       H  0.45776676  0.87069053  0.23633162     0.12300
C1122       C  0.40594122  0.86003834  0.28675351     0.61900
F1123       F  0.37360203  0.77788721  0.10307408    -0.23300
F1124       F  0.42720241  0.79476147  0.10784859    -0.20600
F1125       F  0.41016481  0.82856683  0.08015910    -0.20300
F1126       F  0.37535842  0.84526957  0.30703676    -0.20400
F1127       F  0.41681146  0.89325301  0.28137971    -0.20700
F1128       F  0.42739207  0.85643469  0.31433319    -0.23400
C1129       C  0.59647902  0.00494162  0.20593854    -0.06200
C1130       C  0.56637483  0.97556250  0.20899124    -0.00300
C1131       C  0.54785717  0.96795635  0.24909820    -0.08800
C1132       C  0.56140029  0.98918987  0.28554095    -0.06200
C1133       C  0.59190378  0.01804815  0.28271578    -0.00300
C1134       C  0.60971776  0.02658227  0.24195467    -0.08700
C1135       C  0.64293196  0.05780697  0.23600893     0.61600
H1136       H  0.61013571  0.01043330  0.17512906     0.12300
H1137       H  0.54809937  0.98348798  0.31669567     0.12300
C1138       C  0.51381387  0.93796889  0.25381832     0.61900
F1139       F  0.65740386  0.05835857  0.19566238    -0.23300
F1140       F  0.66443989  0.06016730  0.26868419    -0.20600
F1141       F  0.63900442  0.08514769  0.23765801    -0.20300
F1142       F  0.51637440  0.90984404  0.25686262    -0.20400
F1143       F  0.49476147  0.93568890  0.21772634    -0.20700
F1144       F  0.49772625  0.93974362  0.29149080    -0.23400
C1145       C  0.65357911  0.92043940  0.10152986    -0.06200
C1146       C  0.63899276  0.93830590  0.08568784    -0.00300
C1147       C  0.65679929  0.96403801  0.05400109    -0.08800
C1148       C  0.68645148  0.96845282  0.03684086    -0.06200
C1149       C  0.70252131  0.95347381  0.05597939    -0.00300
C1150       C  0.68587974  0.92871324  0.08852502    -0.08700
C1151       C  0.70260560  0.91188109  0.11009201     0.61600
H1152       H  0.64012226  0.90094923  0.12529744     0.12300
H1153       H  0.69974613  0.98759173  0.01250523     0.12300
C1154       C  0.64705113  0.98949843  0.04072938     0.61900
F1155       F  0.72637511  0.93360310  0.13886040    -0.23300
F1156       F  0.71705500  0.90191811  0.07799190    -0.20600
F1157       F  0.68052682  0.88433514  0.13383109    -0.20300
F1158       F  0.63606282  0.99920252  0.07737487    -0.20400
F1159       F  0.62292007  0.97658307  0.00866967    -0.20700
F1160       F  0.67345139  0.01775810  0.02343223    -0.23400
C1161       C  0.52440659  0.99055801  0.00241947    -0.06200
C1162       C  0.49528694  0.96211262  0.01669503    -0.00300
C1163       C  0.46473074  0.95883782  0.00498702    -0.08800
C1164       C  0.46432007  0.98456343  0.98099264    -0.06200
C1165       C  0.49341746  0.01342401  0.96770501    -0.00300
C1166       C  0.52401435  0.01603226  0.97768808    -0.08700
C1167       C  0.55591963  0.04496212  0.96109040     0.61600
H1168       H  0.54782716  0.99276780  0.01090532     0.12300
H1169       H  0.44086927  0.98240680  0.97281283     0.12300
C1170       C  0.43282385  0.92864883  0.01860151     0.61900
F1171       F  0.58263706  0.04075218  0.96929599    -0.23300
F1172       F  0.56124076  0.07358222  0.98192523    -0.20600
F1173       F  0.55419670  0.04831128  0.91584376    -0.20300
F1174       F  0.43223208  0.92444769  0.06395796    -0.20400
F1175       F  0.43035945  0.90113096  0.99769166    -0.20700
F1176       F  0.40566166  0.93130739  0.00725354    -0.23400
C1177       C  0.50064680  0.23794731  0.84732537    -0.06200
C1178       C  0.46875491  0.23358091  0.85096383    -0.00300
C1179       C  0.44522143  0.20764528  0.87757763    -0.08800
C1180       C  0.45450874  0.18718107  0.89981894    -0.06200
C1181       C  0.48492867  0.18877452  0.89169319    -0.00300
C1182       C  0.50887916  0.21532704  0.86622045    -0.08700
C1183       C  0.54147835  0.21759491  0.85493814     0.61600
H1184       H  0.51815960  0.25741125  0.82617997     0.12300
H1185       H  0.43623088  0.16651989  0.91890115     0.12300
C1186       C  0.40965000  0.19974875  0.87947779     0.61900
F1187       F  0.56285539  0.24718048  0.83459473    -0.23300
F1188       F  0.53625025  0.19221339  0.82648178    -0.20600
F1189       F  0.55625778  0.21520936  0.89311508    -0.20300
F1190       F  0.39624414  0.19234700  0.83753044    -0.20400
F1191       F  0.39054298  0.17312185  0.90666496    -0.20700
F1192       F  0.40810022  0.22648217  0.89561950    -0.23400
C1193       C  0.32267542  0.18826649  0.68362365    -0.06200
C1194       C  0.35198745  0.18920589  0.69737688    -0.00300
C1195       C  0.35587930  0.16172642  0.68734740    -0.08800
C1196       C  0.33132236  0.13529856  0.66254599    -0.06200
C1197       C  0.30239570  0.13458206  0.64781552    -0.00300
C1198       C  0.29772093  0.16139723  0.65938932    -0.08700
C1199       C  0.26690973  0.16195980  0.64572996     0.61600
H1200       H  0.31955712  0.20915122  0.69163835     0.12300
H1201       H  0.33462293  0.11451915  0.65457673     0.12300
C1202       C  0.38538604  0.15970986  0.70362998     0.61900
F1203       F  0.26881351  0.19180146  0.65572265    -0.23300
F1204       F  0.23997998  0.13738087  0.66782259    -0.20600
F1205       F  0.26227627  0.15689184  0.60057318    -0.20300
F1206       F  0.38994355  0.16704705  0.74832993    -0.20400
F1207       F  0.41321137  0.18178971  0.68048637    -0.20700
F1208       F  0.38127167  0.12848317  0.69783964    -0.23400
C1209       C  0.18995686  0.05637248  0.93173023    -0.06200
C1210       C  0.16431795  0.02877070  0.95298536    -0.00300
C1211       C  0.14756263  0.03409213  0.98840480    -0.08800
C1212       C  0.15911900  0.06651425  0.00404638    -0.06200
C1213       C  0.18789874  0.09347753  0.98704558    -0.00300
C1214       C  0.20329303  0.08844242  0.94947356    -0.08700
C1215       C  0.23525030  0.11472983  0.92902391     0.61600
H1216       H  0.20305219  0.05217853  0.90498865     0.12300
H1217       H  0.14748544  0.07063885  0.03260014     0.12300
C1218       C  0.11977954  0.00527649  0.01251924     0.61900
F1219       F  0.25767721  0.10363077  0.92761452    -0.23300
F1220       F  0.24945928  0.14392666  0.95237380    -0.20600
F1221       F  0.22935460  0.12076364  0.88624019    -0.20300
F1222       F  0.13194422  0.98789596  0.03475670    -0.20400
F1223       F  0.09640402  0.98470568  0.98236833    -0.20700
F1224       F  0.10458360  0.01552291  0.04314163    -0.23400
C1225       C  0.32231340  0.24448074  0.87522887    -0.06200
C1226       C  0.35606525  0.26138927  0.88402539    -0.00300
C1227       C  0.36693160  0.26806176  0.92874852    -0.08800
C1228       C  0.34357947  0.25303428  0.96254245    -0.06200
C1229       C  0.30974502  0.23518927  0.95389759    -0.00300
C1230       C  0.29875013  0.23298425  0.90933732    -0.08700
C1231       C  0.26302541  0.22087975  0.89694683     0.61600
H1232       H  0.31442564  0.24082950  0.84106068     0.12300
H1233       H  0.35183579  0.25601723  0.99649073     0.12300
C1234       C  0.40222480  0.29279335  0.94184552     0.61900
F1235       F  0.25971567  0.22583710  0.85254559    -0.23300
F1236       F  0.25117210  0.23804822  0.92101911    -0.20600
F1237       F  0.24379376  0.18756815  0.90496329    -0.20300
F1238       F  0.41324323  0.32166446  0.91823843    -0.20400
F1239       F  0.42287555  0.28018551  0.93407556    -0.20700
F1240       F  0.40455702  0.30088159  0.98635012    -0.23400
C1241       C  0.33978672  0.18493585  0.15083660    -0.06200
C1242       C  0.30848920  0.15699608  0.14314765    -0.00300
C1243       C  0.30209886  0.12666455  0.16216269    -0.08800
C1244       C  0.32696306  0.12547482  0.18753465    -0.06200
C1245       C  0.35825545  0.15342906  0.19530925    -0.00300
C1246       C  0.36449237  0.18385136  0.17674041    -0.08700
C1247       C  0.39648828  0.21544253  0.18576774     0.61600
H1248       H  0.34465085  0.20824814  0.13698867     0.12300
H1249       H  0.32204727  0.10215162  0.20140360     0.12300
C1250       C  0.26942614  0.09540274  0.15501705     0.61900
F1251       F  0.39601842  0.24285991  0.16961006    -0.23300
F1252       F  0.42239151  0.21408674  0.16571193    -0.20600
F1253       F  0.40174731  0.21957330  0.23093908    -0.20300
F1254       F  0.26251752  0.09065347  0.11025089    -0.20400
F1255       F  0.24468689  0.09789433  0.17677311    -0.20700
F1256       F  0.26968560  0.06784933  0.17105293    -0.23400
C1257       C  0.41973948  0.39197646  0.73573805    -0.06200
C1258       C  0.41384553  0.37627459  0.77723966    -0.00300
C1259       C  0.39599831  0.38294374  0.80948415    -0.08800
C1260       C  0.37752152  0.39734443  0.79540551    -0.06200
C1261       C  0.37749140  0.40612020  0.75069898    -0.00300
C1262       C  0.40275691  0.40838376  0.72270541    -0.08700
C1263       C  0.41182984  0.42794588  0.68022032     0.61600
H1264       H  0.43557793  0.38890276  0.71219017     0.12300
H1265       H  0.36086140  0.39930133  0.81866478     0.12300
C1266       C  0.39449994  0.37290770  0.85745164     0.61900
F1267       F  0.44046681  0.43116497  0.66194132    -0.23300
F1268       F  0.41702502  0.45926388  0.68894164    -0.20600
F1269       F  0.38686509  0.41267830  0.64979968    -0.20300
F1270       F  0.42613585  0.38548987  0.87337169    -0.20400
F1271       F  0.37782120  0.33896530  0.86094600    -0.20700
F1272       F  0.37853122  0.38495308  0.88386495    -0.23400
C1273       C  0.25538510  0.20575095  0.24608056    -0.06200
C1274       C  0.23652161  0.20834683  0.21220550    -0.00300
C1275       C  0.21719657  0.22337786  0.22098028    -0.08800
C1276       C  0.21603142  0.23342377  0.26415640    -0.06200
C1277       C  0.23314462  0.22893007  0.29852681    -0.00300
C1278       C  0.25369738  0.21554918  0.28953881    -0.08700
C1279       C  0.27288434  0.21092910  0.32578126     0.61600
H1280       H  0.27064788  0.19495251  0.23843097     0.12300
H1281       H  0.20031552  0.24380490  0.27161850     0.12300
C1282       C  0.19649432  0.22903225  0.18778480     0.61900
F1283       F  0.25163971  0.19128448  0.35861637    -0.23300
F1284       F  0.29476398  0.24144962  0.34303673    -0.20600
F1285       F  0.29032050  0.19613875  0.31033908    -0.20300
F1286       F  0.16400557  0.21089648  0.20106173    -0.20400
F1287       F  0.19954945  0.22043334  0.14500875    -0.20700
F1288       F  0.20528036  0.26199168  0.18793553    -0.23400
C1289       C  0.20490183  0.12361867  0.42716999    -0.06200
C1290       C  0.17444099  0.12135720  0.43690293    -0.00300
C1291       C  0.15188043  0.09528958  0.46440523    -0.08800
C1292       C  0.16200233  0.07501159  0.48537950    -0.06200
C1293       C  0.19368102  0.07960977  0.47915800    -0.00300
C1294       C  0.21515272  0.10341361  0.44841833    -0.08700
C1295       C  0.24963666  0.10908842  0.44102134     0.61600
H1296       H  0.22229052  0.14403497  0.40723096     0.12300
H1297       H  0.14601195  0.05697592  0.50940889     0.12300
C1298       C  0.11779176  0.09020788  0.47344334     0.61900
F1299       F  0.26688196  0.13354899  0.41005944    -0.23300
F1300       F  0.24793006  0.08030045  0.42597698    -0.20600
F1301       F  0.26688328  0.11842287  0.48037550    -0.20300
F1302       F  0.10230067  0.08743952  0.43361431    -0.20400
F1303       F  0.11982624  0.11654788  0.49709945    -0.20700
F1304       F  0.09859601  0.06175690  0.49751128    -0.23400
C1305       C  0.23487787  0.32039940  0.62588038    -0.06200
C1306       C  0.26384024  0.35044258  0.61869369    -0.00300
C1307       C  0.27845626  0.35799201  0.57577779    -0.08800
C1308       C  0.26323327  0.33504312  0.54165422    -0.06200
C1309       C  0.23509597  0.30454820  0.54919828    -0.00300
C1310       C  0.22017979  0.29704549  0.59182863    -0.08700
C1311       C  0.18870751  0.26493769  0.60146116     0.61600
H1312       H  0.22391746  0.31525511  0.65864411     0.12300
H1313       H  0.27427404  0.34010357  0.50894289     0.12300
C1314       C  0.31097828  0.38905615  0.56599607     0.61900
F1315       F  0.17503878  0.26591435  0.64184740    -0.23300
F1316       F  0.19514240  0.23912728  0.60271017    -0.20600
F1317       F  0.16573410  0.25904882  0.56902658    -0.20300
F1318       F  0.33394994  0.39297907  0.59736822    -0.20400
F1319       F  0.30676536  0.41627917  0.56625795    -0.20700
F1320       F  0.32360896  0.38767263  0.52495561    -0.23400
C1321       C  0.31662679  0.42173801  0.95250343    -0.06200
C1322       C  0.34973594  0.44656178  0.95483622    -0.00300
C1323       C  0.36624080  0.46455533  0.91662651    -0.08800
C1324       C  0.34915342  0.45639494  0.87642826    -0.06200
C1325       C  0.31606492  0.43145742  0.87382427    -0.00300
C1326       C  0.29926704  0.41380854  0.91230586    -0.08700
C1327       C  0.26294735  0.38806718  0.91138692     0.61600
H1328       H  0.30429466  0.40945390  0.98255239     0.12300
H1329       H  0.36141047  0.46977794  0.84663877     0.12300
C1330       C  0.40142003  0.49283782  0.91882188     0.61900
F1331       F  0.25053787  0.37699211  0.95343484    -0.23300
F1332       F  0.25830169  0.36124455  0.88637809    -0.20600
F1333       F  0.24519441  0.40142386  0.89310985    -0.20300
F1334       F  0.42165333  0.48146599  0.93433927    -0.20400
F1335       F  0.40310051  0.51697787  0.94711789    -0.20700
F1336       F  0.41304940  0.50705693  0.87775491    -0.23400
C1337       C  0.28618840  0.35052111  0.05820583    -0.06200
C1338       C  0.29608992  0.36066567  0.10230464    -0.00300
C1339       C  0.28364506  0.33673668  0.13610962    -0.08800
C1340       C  0.26663955  0.30326041  0.12360643    -0.06200
C1341       C  0.26225458  0.29322765  0.07874533    -0.00300
C1342       C  0.27050610  0.31718715  0.04545991    -0.08700
C1343       C  0.26613478  0.30823583  0.99660351     0.61600
H1344       H  0.29434321  0.36909063  0.03301179     0.12300
H1345       H  0.25976438  0.28464965  0.14883680     0.12300
C1346       C  0.29003811  0.34610808  0.18464224     0.61900
F1347       F  0.27677682  0.33567858  0.96991026    -0.23300
F1348       F  0.23322641  0.28706818  0.98785316    -0.20600
F1349       F  0.28421329  0.29319989  0.98529305    -0.20300
F1350       F  0.27941220  0.36817508  0.19492542    -0.20400
F1351       F  0.32327837  0.36039360  0.19340608    -0.20700
F1352       F  0.27343204  0.31895144  0.21195611    -0.23400
C1353       C  0.42528907  0.33375996  0.61473625    -0.06200
C1354       C  0.43367070  0.30950005  0.62356232    -0.00300
C1355       C  0.44891408  0.30015920  0.59051788    -0.08800
C1356       C  0.45748621  0.31735237  0.55046196    -0.06200
C1357       C  0.45133021  0.34342622  0.54226879    -0.00300
C1358       C  0.43373253  0.35103506  0.57436473    -0.08700
C1359       C  0.42458811  0.37762368  0.56739813     0.61600
H1360       H  0.41313362  0.33991048  0.64064756     0.12300
H1361       H  0.46962375  0.31058852  0.52528750     0.12300
C1362       C  0.45586572  0.27196141  0.59712427     0.61900
F1363       F  0.40826799  0.38065432  0.60367263    -0.23300
F1364       F  0.40375508  0.36987688  0.53168670    -0.20600
F1365       F  0.45264766  0.40773673  0.56044599    -0.20300
F1366       F  0.42808323  0.24462992  0.61347959    -0.20400
F1367       F  0.48151834  0.28131870  0.62646988    -0.20700
F1368       F  0.46456533  0.26284281  0.55782812    -0.23400
C1369       C  0.47055655  0.25534002  0.41256412    -0.06200
C1370       C  0.49429514  0.28449063  0.39170043    -0.00300
C1371       C  0.51147879  0.28160372  0.35469605    -0.08800
C1372       C  0.50073264  0.25029583  0.33572482    -0.06200
C1373       C  0.47482152  0.22149764  0.35404371    -0.00300
C1374       C  0.46084051  0.22378939  0.39468016    -0.08700
C1375       C  0.43421390  0.19331975  0.41727904     0.61600
H1376       H  0.45749506  0.25765136  0.44085915     0.12300
H1377       H  0.51162635  0.24828251  0.30496078     0.12300
C1378       C  0.53959981  0.31152114  0.33324792     0.61900
F1379       F  0.42352902  0.20096163  0.45607764    -0.23300
F1380       F  0.44637502  0.17264171  0.42769706    -0.20600
F1381       F  0.40757772  0.17720023  0.38930907    -0.20300
F1382       F  0.56121098  0.33139049  0.36551675    -0.20400
F1383       F  0.52760798  0.32865093  0.31032067    -0.20700
F1384       F  0.55686462  0.30294319  0.30374762    -0.23400
C1385       C  0.41818592  0.43835058  0.24826159    -0.06200
C1386       C  0.41240096  0.42106400  0.20786603    -0.00300
C1387       C  0.41452198  0.39180953  0.20681248    -0.08800
C1388       C  0.42105337  0.38061470  0.24657933    -0.06200
C1389       C  0.42559433  0.39733754  0.28719238    -0.00300
C1390       C  0.42446712  0.42704850  0.28792153    -0.08700
C1391       C  0.43063706  0.44747643  0.32971097     0.61600
H1392       H  0.41722061  0.46098639  0.24896051     0.12300
H1393       H  0.42227289  0.35809775  0.24626205     0.12300
C1394       C  0.40975965  0.37206393  0.16460597     0.61900
F1395       F  0.43046360  0.47655693  0.32195690    -0.23300
F1396       F  0.46112140  0.45567036  0.34643958    -0.20600
F1397       F  0.40639579  0.42980713  0.36077330    -0.20300
F1398       F  0.43226136  0.39190339  0.13285908    -0.20400
F1399       F  0.37812501  0.35996887  0.14899726    -0.20700
F1400       F  0.41441750  0.34539460  0.17136705    -0.23400
C1401       C  0.35562934  0.29362049  0.47435546    -0.06200
C1402       C  0.36520284  0.28692295  0.43280597    -0.00300
C1403       C  0.34552710  0.25475357  0.41519462    -0.08800
C1404       C  0.31355364  0.23435454  0.43352826    -0.06200
C1405       C  0.30199992  0.24475148  0.46997350    -0.00300
C1406       C  0.32508379  0.27249047  0.49384071    -0.08700
C1407       C  0.31676109  0.28241743  0.53776842     0.61600
H1408       H  0.37166587  0.31625246  0.49170238     0.12300
H1409       H  0.29645288  0.21167477  0.41709461     0.12300
C1410       C  0.35796187  0.24210804  0.37780690     0.61900
F1411       F  0.34143675  0.28906427  0.56787021    -0.23300
F1412       F  0.28744904  0.25767187  0.55515746    -0.20600
F1413       F  0.31434751  0.31046590  0.53220647    -0.20300
F1414       F  0.38831555  0.24602483  0.38885959    -0.20400
F1415       F  0.36091890  0.25929301  0.33934277    -0.20700
F1416       F  0.33693979  0.20891376  0.37004686    -0.23400
C1417       C  0.57919669  0.39861925  0.81772407    -0.06200
C1418       C  0.57914949  0.42686244  0.80242211    -0.00300
C1419       C  0.55983581  0.42421765  0.76524385    -0.08800
C1420       C  0.53787629  0.39254147  0.74832731    -0.06200
C1421       C  0.53515093  0.36382106  0.76730235    -0.00300
C1422       C  0.55846188  0.36727930  0.79943205    -0.08700
C1423       C  0.55829174  0.33777779  0.81981021     0.61600
H1424       H  0.59428497  0.40083546  0.84599363     0.12300
H1425       H  0.52003202  0.38971659  0.72356599     0.12300
C1426       C  0.56112272  0.45449006  0.74548025     0.61900
F1427       F  0.58982997  0.34574569  0.83198000    -0.23300
F1428       F  0.54714995  0.31206208  0.78985287    -0.20600
F1429       F  0.53825030  0.32783954  0.85692965    -0.20300
F1430       F  0.59284494  0.47568900  0.73107082    -0.20400
F1431       F  0.55217350  0.47019231  0.77699061    -0.20700
F1432       F  0.54018393  0.44667185  0.70972313    -0.23400
C1433       C  0.52471945  0.52083994  0.97413331    -0.06200
C1434       C  0.52491572  0.49142354  0.96308940    -0.00300
C1435       C  0.49804799  0.46112394  0.97718411    -0.08800
C1436       C  0.47276088  0.46146914  0.00280027    -0.06200
C1437       C  0.47290137  0.49092958  0.01459273    -0.00300
C1438       C  0.49921497  0.52115095  0.99927232    -0.08700
C1439       C  0.50082488  0.55360972  0.01022210     0.61600
H1440       H  0.54523693  0.54406153  0.96329106     0.12300
H1441       H  0.45231450  0.43826051  0.01385261     0.12300
C1442       C  0.49560268  0.42854775  0.96446460     0.61900
F1443       F  0.52989292  0.58035423  0.99560729    -0.23300
F1444       F  0.49874544  0.55654107  0.05556247    -0.20600
F1445       F  0.47504921  0.55482086  0.99006804    -0.20300
F1446       F  0.51932832  0.42494642  0.98663821    -0.20400
F1447       F  0.50025672  0.42765482  0.91930106    -0.20700
F1448       F  0.46511540  0.40201436  0.97508207    -0.23400
C1449       C  0.40896522  0.57499245  0.66999217    -0.06200
C1450       C  0.43754021  0.57459831  0.68270686    -0.00300
C1451       C  0.43609712  0.55547338  0.71971616    -0.08800
C1452       C  0.40524613  0.53474521  0.73982837    -0.06200
C1453       C  0.37588065  0.53216717  0.72368207    -0.00300
C1454       C  0.37821243  0.55453721  0.69049525    -0.08700
C1455       C  0.34788037  0.55380401  0.67238255     0.61600
H1456       H  0.41048496  0.59007297  0.64196866     0.12300
H1457       H  0.40328006  0.51756310  0.76522394     0.12300
C1458       C  0.46656567  0.55513576  0.73568368     0.61900
F1459       F  0.35587828  0.58272352  0.65027564    -0.23300
F1460       F  0.32659644  0.55030092  0.70656109    -0.20600
F1461       F  0.33238807  0.52777337  0.64315410    -0.20300
F1462       F  0.48978091  0.58643905  0.74930260    -0.20400
F1463       F  0.47959028  0.54511834  0.70172916    -0.20700
F1464       F  0.45967827  0.53386982  0.77099090    -0.23400
C1465       C  0.49902465  0.73983665  0.65271092    -0.06200
C1466       C  0.52936676  0.76770438  0.64199621    -0.00300
C1467       C  0.54923699  0.76484471  0.60883198    -0.08800
C1468       C  0.53960761  0.73340706  0.59071084    -0.06200
C1469       C  0.51097306  0.70480986  0.60509881    -0.00300
C1470       C  0.48923315  0.70845387  0.63424343    -0.08700
C1471       C  0.45713160  0.67879562  0.64852894     0.61600
H1472       H  0.48412126  0.74228423  0.67828604     0.12300
H1473       H  0.55624359  0.73036219  0.56863376     0.12300
C1474       C  0.58176803  0.79440859  0.59554965     0.61900
F1475       F  0.43787872  0.68792973  0.67308843    -0.23300
F1476       F  0.46339421  0.65813471  0.67408623    -0.20600
F1477       F  0.43949378  0.66184309  0.61152644    -0.20300
F1478       F  0.60274267  0.80508593  0.63141274    -0.20400
F1479       F  0.57664340  0.81963453  0.58168706    -0.20700
F1480       F  0.59683554  0.78698259  0.56132224    -0.23400
C1481       C  0.51920306  0.50553756  0.53571884    -0.06200
C1482       C  0.50279307  0.52208606  0.52014112    -0.00300
C1483       C  0.48821113  0.51309889  0.47757121    -0.08800
C1484       C  0.48876526  0.48694295  0.45432254    -0.06200
C1485       C  0.50451029  0.46992331  0.47038226    -0.00300
C1486       C  0.52111419  0.48046195  0.51148795    -0.08700
C1487       C  0.54127587  0.46595261  0.52989060     0.61600
H1488       H  0.53138306  0.51287587  0.56733211     0.12300
H1489       H  0.47648300  0.47947853  0.42281530     0.12300
C1490       C  0.47286528  0.53136801  0.45568239     0.61900
F1491       F  0.55777527  0.48188161  0.56812230    -0.23300
F1492       F  0.56461382  0.46915648  0.49896488    -0.20600
F1493       F  0.52102808  0.43303069  0.53995691    -0.20300
F1494       F  0.49600610  0.56441679  0.45174134    -0.20400
F1495       F  0.44652408  0.52786681  0.48076025    -0.20700
F1496       F  0.46146764  0.51950757  0.41358378    -0.23400
C1497       C  0.57927433  0.60337807  0.74715441    -0.06200
C1498       C  0.57438487  0.58687597  0.70651581    -0.00300
C1499       C  0.57883557  0.55928055  0.70341169    -0.08800
C1500       C  0.58950836  0.55002567  0.74110486    -0.06200
C1501       C  0.59487076  0.56664071  0.78205784    -0.00300
C1502       C  0.58905887  0.59363521  0.78534295    -0.08700
C1503       C  0.59302981  0.61236682  0.82825923     0.61600
H1504       H  0.57533843  0.62431654  0.74865372     0.12300
H1505       H  0.59366187  0.52936975  0.73854482     0.12300
C1506       C  0.57074671  0.53868730  0.66145438     0.61900
F1507       F  0.58624306  0.63779098  0.82298842    -0.23300
F1508       F  0.62504402  0.62604963  0.84314334    -0.20600
F1509       F  0.57146727  0.59118007  0.85986225    -0.20300
F1510       F  0.59195777  0.55697789  0.62767091    -0.20400
F1511       F  0.53869733  0.52850510  0.64927414    -0.20700
F1512       F  0.57352731  0.51083332  0.66721208    -0.23400
C1513       C  0.58463574  0.67032987  0.38896010    -0.06200
C1514       C  0.57175915  0.69098929  0.37979049    -0.00300
C1515       C  0.55096332  0.69433248  0.41083568    -0.08800
C1516       C  0.54224754  0.67523964  0.44926067    -0.06200
C1517       C  0.55345393  0.65285520  0.45780796    -0.00300
C1518       C  0.57626167  0.65130528  0.42783050    -0.08700
C1519       C  0.59148557  0.62965820  0.43567676     0.61600
H1520       H  0.59992697  0.66783795  0.36410217     0.12300
H1521       H  0.52567554  0.67730371  0.47251024     0.12300
C1522       C  0.53688619  0.71699578  0.40302147     0.61900
F1523       F  0.61252813  0.63207861  0.40162863    -0.23300
F1524       F  0.56708301  0.59698033  0.43869642    -0.20600
F1525       F  0.60963432  0.63927625  0.47427254    -0.20300
F1526       F  0.51170680  0.70284869  0.37254316    -0.20400
F1527       F  0.56104597  0.74715646  0.38731342    -0.20700
F1528       F  0.52439027  0.72270912  0.44164382    -0.23400
C1529       C  0.45768857  0.62319083  0.18291442    -0.06200
C1530       C  0.47438697  0.62288799  0.22107660    -0.00300
C1531       C  0.46599037  0.59192857  0.24010087    -0.08800
C1532       C  0.44312644  0.56239965  0.21829563    -0.06200
C1533       C  0.42887951  0.56293303  0.17767603    -0.00300
C1534       C  0.43480876  0.59387108  0.16118802    -0.08700
C1535       C  0.41734625  0.59615865  0.12037944     0.61600
H1536       H  0.46505889  0.64667390  0.16753420     0.12300
H1537       H  0.43798640  0.53875693  0.23132758     0.12300
C1538       C  0.48239421  0.59030712  0.28237487     0.61900
F1539       F  0.42242893  0.62771953  0.11451831    -0.23300
F1540       F  0.38384384  0.57503223  0.12469598    -0.20600
F1541       F  0.42882272  0.58782614  0.08303868    -0.20300
F1542       F  0.48085009  0.61115906  0.31377488    -0.20400
F1543       F  0.51499840  0.59987068  0.27413165    -0.20700
F1544       F  0.46709279  0.55874698  0.29973496    -0.23400
C1545       C  0.49332783  0.77460147  0.13768304    -0.06200
C1546       C  0.51553848  0.79660427  0.10647514    -0.00300
C1547       C  0.54185503  0.79205392  0.09167087    -0.08800
C1548       C  0.54699130  0.76774431  0.11181626    -0.06200
C1549       C  0.52689466  0.74815594  0.14661483    -0.00300
C1550       C  0.49880750  0.75079117  0.15867837    -0.08700
C1551       C  0.47531767  0.72955127  0.19495579     0.61600
H1552       H  0.47357548  0.77857159  0.14901319     0.12300
H1553       H  0.56864557  0.76611436  0.10323919     0.12300
C1554       C  0.56668471  0.81513566  0.05803972     0.61900
F1555       F  0.44846667  0.73425685  0.19894977    -0.23300
F1556       F  0.49113345  0.73701707  0.23528149    -0.20600
F1557       F  0.46371084  0.69674735  0.18529258    -0.20300
F1558       F  0.58992326  0.84352849  0.07898795    -0.20400
F1559       F  0.55121718  0.82335045  0.02575452    -0.20700
F1560       F  0.58257086  0.80047547  0.03731518    -0.23400
C1561       C  0.64057338  0.80558725  0.35294618    -0.06200
C1562       C  0.64219516  0.80940843  0.30672228    -0.00300
C1563       C  0.67118212  0.83600875  0.28799650    -0.08800
C1564       C  0.69768228  0.85682579  0.31593234    -0.06200
C1565       C  0.69616766  0.85276904  0.36212449    -0.00300
C1566       C  0.66672150  0.82692302  0.38105245    -0.08700
C1567       C  0.66322187  0.82102391  0.43073695     0.61600
H1568       H  0.61903382  0.78477449  0.36691135     0.12300
H1569       H  0.71959383  0.87730836  0.30178910     0.12300
C1570       C  0.67418034  0.84285676  0.23858364     0.61900
F1571       F  0.63520997  0.79166258  0.44143619    -0.23300
F1572       F  0.66110966  0.84615851  0.45201203    -0.20600
F1573       F  0.69013862  0.81961660  0.44649665    -0.20300
F1574       F  0.64501796  0.83934603  0.22250306    -0.20400
F1575       F  0.68143105  0.82118565  0.21671604    -0.20700
F1576       F  0.69891189  0.87462797  0.22920408    -0.23400
C1577       C  0.80351683  0.89018537  0.05209509    -0.06200
C1578       C  0.81689880  0.88885037  0.01089476    -0.00300
C1579       C  0.84354692  0.91827581  0.99347615    -0.08800
C1580       C  0.85246867  0.94851724  0.01433642    -0.06200
C1581       C  0.83625023  0.95046043  0.05226269    -0.00300
C1582       C  0.81311722  0.92071641  0.07334199    -0.08700
C1583       C  0.79835451  0.92171754  0.11773263     0.61600
H1584       H  0.78417947  0.86745810  0.06617554     0.12300
H1585       H  0.86916055  0.97108093  0.99756585     0.12300
C1586       C  0.86182553  0.91827965  0.95184140     0.61900
F1587       F  0.77564054  0.89048414  0.13242715    -0.23300
F1588       F  0.78282288  0.94013248  0.11492804    -0.20600
F1589       F  0.82318254  0.93605610  0.14865691    -0.20300
F1590       F  0.84195853  0.91187587  0.91532385    -0.20400
F1591       F  0.87115612  0.89462107  0.95526067    -0.20700
F1592       F  0.89008224  0.94838342  0.94534443    -0.23400
C1593       C  0.73125164  0.66601034  0.95727466    -0.06200
C1594       C  0.74020095  0.68901110  0.92317643    -0.00300
C1595       C  0.74058055  0.67843163  0.87902821    -0.08800
C1596       C  0.72292409  0.64467782  0.86902550    -0.06200
C1597       C  0.70899804  0.62147705  0.90284542    -0.00300
C1598       C  0.71769340  0.63229378  0.94743285    -0.08700
C1599       C  0.71308534  0.60919280  0.98512968     0.61600
H1600       H  0.73356601  0.67403431  0.99144448     0.12300
H1601       H  0.71850895  0.63670268  0.83476733     0.12300
C1602       C  0.75847450  0.70233011  0.84200520     0.61900
F1603       F  0.74261462  0.62084250  0.00720791    -0.23300
F1604       F  0.70374355  0.57774584  0.97025520    -0.20600
F1605       F  0.68970077  0.60794772  0.01444308    -0.20300
F1606       F  0.78337259  0.73160981  0.85890390    -0.20400
F1607       F  0.73660399  0.70801027  0.81845341    -0.20700
F1608       F  0.77273228  0.68959465  0.81364240    -0.23400
C1609       C  0.69393238  0.73665860  0.07417489    -0.06200
C1610       C  0.68784947  0.75330903  0.04035041    -0.00300
C1611       C  0.66480595  0.76397542  0.04719699    -0.08800
C1612       C  0.64782656  0.75681080  0.08793753    -0.06200
C1613       C  0.65393039  0.74014866  0.12206111    -0.00300
C1614       C  0.67736016  0.72978643  0.11504265    -0.08700
C1615       C  0.68481818  0.71140470  0.15011733     0.61600
H1616       H  0.71243746  0.72957026  0.06841346     0.12300
H1617       H  0.62948443  0.76413657  0.09350700     0.12300
C1618       C  0.65895500  0.78347158  0.01204994     0.61900
F1619       F  0.70643099  0.70138750  0.13490285    -0.23300
F1620       F  0.65617658  0.68356738  0.16316104    -0.20600
F1621       F  0.69907027  0.73196252  0.18601300    -0.20300
F1622       F  0.64744365  0.76475312  0.97393660    -0.20400
F1623       F  0.68807438  0.81206865  0.00266618    -0.20700
F1624       F  0.63606821  0.79219347  0.02569153    -0.23400
C1625       C  0.66618470  0.79731896  0.84175219    -0.06200
C1626       C  0.69622403  0.82599396  0.85247954    -0.00300
C1627       C  0.70059076  0.85680503  0.83875555    -0.08800
C1628       C  0.67518794  0.85764520  0.81440473    -0.06200
C1629       C  0.64506438  0.82891234  0.80380965    -0.00300
C1630       C  0.64057021  0.79817917  0.81816036    -0.08700
C1631       C  0.60908233  0.76632172  0.80836458     0.61600
H1632       H  0.66275254  0.77370709  0.85224685     0.12300
H1633       H  0.67855923  0.88126927  0.80408271     0.12300
C1634       C  0.73123863  0.88869380  0.85125347     0.61900
F1635       F  0.60233137  0.76411658  0.76357615    -0.23300
F1636       F  0.58334835  0.76560451  0.83198822    -0.20600
F1637       F  0.61130460  0.73891414  0.82014025    -0.20300
F1638       F  0.75843562  0.89027213  0.83069867    -0.20400
F1639       F  0.73542753  0.89005537  0.89665775    -0.20700
F1640       F  0.72926741  0.91609703  0.83866203    -0.23400
C1641       C  0.76431202  0.76787593  0.70422155    -0.06200
C1642       C  0.78990156  0.76038528  0.70235053    -0.00300
C1643       C  0.80830997  0.76385763  0.74055094    -0.08800
C1644       C  0.79970339  0.77334629  0.78016413    -0.06200
C1645       C  0.77273657  0.77859716  0.78325002    -0.00300
C1646       C  0.75499739  0.77658894  0.74450700    -0.08700
C1647       C  0.72826802  0.78597142  0.74492522     0.61600
H1648       H  0.75283088  0.76823268  0.67394455     0.12300
H1649       H  0.81388962  0.77653953  0.80903555     0.12300
C1650       C  0.83705904  0.75762579  0.73924947     0.61900
F1651       F  0.71594089  0.78464918  0.70298047    -0.23300
F1652       F  0.74099205  0.81781112  0.76076054    -0.20600
F1653       F  0.70242237  0.76466222  0.77173991    -0.20300
F1654       F  0.86093719  0.77944901  0.71038484    -0.20400
F1655       F  0.82596842  0.72572930  0.72510113    -0.20700
F1656       F  0.85130910  0.76135945  0.78036120    -0.23400
C1657       C  0.80782883  0.86084406  0.57249405    -0.06200
C1658       C  0.83320727  0.85735103  0.55271281    -0.00300
C1659       C  0.85286040  0.88012041  0.51957152    -0.08800
C1660       C  0.84393701  0.90294289  0.50366596    -0.06200
C1661       C  0.81614157  0.90368224  0.51995653    -0.00300
C1662       C  0.79879451  0.88352752  0.55640781    -0.08700
C1663       C  0.76923420  0.88414940  0.57568317     0.61600
H1664       H  0.79279994  0.84312726  0.59755855     0.12300
H1665       H  0.85712062  0.91867328  0.47588884     0.12300
C1666       C  0.88127290  0.87831284  0.49830515     0.61900
F1667       F  0.75588919  0.86291462  0.61126353    -0.23300
F1668       F  0.74525023  0.87479075  0.54364046    -0.20600
F1669       F  0.77858032  0.91570246  0.59013673    -0.20300
F1670       F  0.86943303  0.84990523  0.47329032    -0.20400
F1671       F  0.90178642  0.87819345  0.53086292    -0.20700
F1672       F  0.89968273  0.90496254  0.47084488    -0.23400
C1673       C  0.69359587  0.72339095  0.61596978    -0.06200
C1674       C  0.70300000  0.72949181  0.57080633    -0.00300
C1675       C  0.67942334  0.72656805  0.53952633    -0.08800
C1676       C  0.64639963  0.71260045  0.55358534    -0.06200
C1677       C  0.63655183  0.70101651  0.59727898    -0.00300
C1678       C  0.66071412  0.70908432  0.62983225    -0.08700
C1679       C  0.65187376  0.69979478  0.67816559     0.61600
H1680       H  0.71151511  0.72635882  0.63993105     0.12300
H1681       H  0.62747256  0.70725810  0.52939073     0.12300
C1682       C  0.68829438  0.73573459  0.49131524     0.61900
F1683       F  0.67950451  0.71189629  0.70458758    -0.23300
F1684       F  0.63466811  0.66587338  0.68259943    -0.20600
F1685       F  0.63278344  0.71275711  0.69357987    -0.20300
F1686       F  0.69870171  0.71551121  0.47222940    -0.20400
F1687       F  0.71314742  0.76824495  0.48842363    -0.20700
F1688       F  0.66175182  0.73244793  0.46732072    -0.23400
C1689       C  0.64982254  0.55092659  0.11069038    -0.06200
C1690       C  0.67650871  0.54601395  0.11795636    -0.00300
C1691       C  0.68880800  0.53466070  0.08344861    -0.08800
C1692       C  0.67248860  0.52675070  0.04279188    -0.06200
C1693       C  0.64502502  0.53070799  0.03543069    -0.00300
C1694       C  0.63355133  0.54335430  0.06982468    -0.08700
C1695       C  0.60399460  0.54817476  0.06431950     0.61600
H1696       H  0.64156983  0.56035651  0.13770543     0.12300
H1697       H  0.68152656  0.51784711  0.01602804     0.12300
C1698       C  0.71975258  0.53220322  0.08904011     0.61900
F1699       F  0.59478272  0.55640146  0.10390131    -0.23300
F1700       F  0.57738618  0.51934308  0.04906160    -0.20600
F1701       F  0.61149863  0.57343485  0.03470488    -0.20300
F1702       F  0.71430755  0.50809278  0.11958809    -0.20400
F1703       F  0.74520162  0.56216879  0.10347194    -0.20700
F1704       F  0.72955226  0.52429629  0.04967939    -0.23400
C1705       C  0.59080187  0.44880066  0.25630255    -0.06200
C1706       C  0.61942575  0.44978393  0.27268189    -0.00300
C1707       C  0.61569578  0.42573197  0.30397447    -0.08800
C1708       C  0.58445091  0.40528111  0.32296611    -0.06200
C1709       C  0.55640476  0.40644015  0.30961641    -0.00300
C1710       C  0.55915140  0.42698131  0.27380817    -0.08700
C1711       C  0.52908437  0.42744578  0.25668630     0.61600
H1712       H  0.59375054  0.46741645  0.23262293     0.12300
H1713       H  0.58210313  0.38964619  0.35055094     0.12300
C1714       C  0.64483314  0.42242410  0.31823455     0.61900
F1715       F  0.51650611  0.43898943  0.28932268    -0.23300
F1716       F  0.50535293  0.39584045  0.24485193    -0.20600
F1717       F  0.53642694  0.44743873  0.21984880    -0.20300
F1718       F  0.66827820  0.45113668  0.33818768    -0.20400
F1719       F  0.65829220  0.41594249  0.28134107    -0.20700
F1720       F  0.63578890  0.39680671  0.34788065    -0.23400
C1721       C  0.77819944  0.68207708  0.40854704    -0.06200
C1722       C  0.75982062  0.67292606  0.44837925    -0.00300
C1723       C  0.72935854  0.64282076  0.44960024    -0.08800
C1724       C  0.71911018  0.62298650  0.41135760    -0.06200
C1725       C  0.73764463  0.63231398  0.37208139    -0.00300
C1726       C  0.76761939  0.66230319  0.37026257    -0.08700
C1727       C  0.78863006  0.67280406  0.32853820     0.61600
H1728       H  0.80112724  0.70505385  0.40744759     0.12300
H1729       H  0.69622990  0.59970059  0.41168106     0.12300
C1730       C  0.70718842  0.63161067  0.49027112     0.61900
F1731       F  0.81790529  0.70198979  0.33452848    -0.23300
F1732       F  0.77171019  0.67743567  0.29459595    -0.20600
F1733       F  0.79609838  0.64870559  0.31630913    -0.20300
F1734       F  0.69995367  0.65576151  0.50309566    -0.20400
F1735       F  0.72266952  0.62521421  0.52442678    -0.20700
F1736       F  0.67766814  0.60306379  0.48235163    -0.23400
C1737       C  0.64488224  0.61926136  0.30023062    -0.06200
C1738       C  0.62853354  0.58789728  0.28168775    -0.00300
C1739       C  0.60226078  0.57957495  0.25208582    -0.08800
C1740       C  0.59454199  0.60406688  0.23970453    -0.06200
C1741       C  0.61378865  0.63685323  0.25411749    -0.00300
C1742       C  0.64012206  0.64467735  0.28458547    -0.08700
C1743       C  0.66595748  0.67983966  0.29745481     0.61600
H1744       H  0.66490206  0.62485786  0.32278259     0.12300
H1745       H  0.57424717  0.59802649  0.21753668     0.12300
C1746       C  0.58288095  0.54488836  0.23378428     0.61900
F1747       F  0.69360315  0.68128135  0.31604781    -0.23300
F1748       F  0.65337367  0.69268263  0.32811067    -0.20600
F1749       F  0.67644220  0.69959166  0.26036070    -0.20300
F1750       F  0.55518225  0.54007864  0.21132274    -0.20400
F1751       F  0.57288280  0.52247619  0.26818793    -0.20700
F1752       F  0.60227010  0.53881053  0.20494257    -0.23400
C1753       C  0.78620004  0.47916522  0.34067925    -0.06200
C1754       C  0.79968221  0.49371224  0.38153484    -0.00300
C1755       C  0.78786556  0.51277314  0.40315195    -0.08800
C1756       C  0.76424323  0.51831115  0.38179064    -0.06200
C1757       C  0.75376951  0.50701025  0.33843943    -0.00300
C1758       C  0.76406504  0.48604245  0.31814004    -0.08700
C1759       C  0.75362704  0.47244205  0.27165717     0.61600
H1760       H  0.79619317  0.46544277  0.32403666     0.12300
H1761       H  0.75603849  0.53393918  0.39726349     0.12300
C1762       C  0.80188951  0.52878590  0.44744539     0.61900
F1763       F  0.76052040  0.44743701  0.26251984    -0.23300
F1764       F  0.77019782  0.49725337  0.24100642    -0.20600
F1765       F  0.72020287  0.45963546  0.26682790    -0.20300
F1766       F  0.83429139  0.55334991  0.44220223    -0.20400
F1767       F  0.80056756  0.50535647  0.47642578    -0.20700
F1768       F  0.78443118  0.54262595  0.46597064    -0.23400
C1769       C  0.20046784  0.73285312  0.09469001    -0.06200
C1770       C  0.20394887  0.70486141  0.10091513    -0.00300
C1771       C  0.23358808  0.70949790  0.11973014    -0.08800
C1772       C  0.25629490  0.74081862  0.13749864    -0.06200
C1773       C  0.24995646  0.76724871  0.13710593    -0.00300
C1774       C  0.22248662  0.76373370  0.11342512    -0.08700
C1775       C  0.21539950  0.79199684  0.11041312     0.61600
H1776       H  0.17797991  0.72930075  0.07969941     0.12300
H1777       H  0.27784750  0.74411734  0.15494937     0.12300
C1778       C  0.24018053  0.68107991  0.12331758     0.61900
F1779       F  0.18874809  0.78433353  0.08345812    -0.23300
F1780       F  0.24246403  0.81938028  0.09299981    -0.20600
F1781       F  0.20864492  0.79958032  0.15209385    -0.20300
F1782       F  0.23770324  0.66737916  0.08183988    -0.20400
F1783       F  0.21751578  0.65752799  0.15169184    -0.20700
F1784       F  0.27139380  0.69115836  0.13933348    -0.23400
C1785       C  0.97095280  0.55528325  0.24700793    -0.06200
C1786       C  0.98355404  0.56376703  0.29022146    -0.00300
C1787       C  0.01804470  0.58322328  0.29630148    -0.08800
C1788       C  0.03814373  0.59507903  0.25856651    -0.06200
C1789       C  0.02531687  0.58682068  0.21548317    -0.00300
C1790       C  0.99123287  0.56528920  0.20954751    -0.08700
C1791       C  0.97616493  0.55130797  0.16462391     0.61600
H1792       H  0.94466778  0.54069620  0.24234899     0.12300
H1793       H  0.06435779  0.61122582  0.26257808     0.12300
C1794       C  0.03403720  0.59124876  0.34173557     0.61900
F1795       F  0.94348923  0.52692600  0.16811434    -0.23300
F1796       F  0.99295368  0.53726386  0.14487618    -0.20600
F1797       F  0.97757749  0.57588415  0.13789368    -0.20300
F1798       F  0.02362342  0.56245363  0.36543217    -0.20400
F1799       F  0.02592168  0.61199620  0.36446583    -0.20700
F1800       F  0.06801654  0.60688178  0.33889417    -0.23400
C1801       C  0.87770063  0.82740165  0.99218959    -0.06200
C1802       C  0.86796773  0.81659068  0.94871868    -0.00300
C1803       C  0.88049930  0.79782055  0.92811838    -0.08800
C1804       C  0.89980473  0.78804093  0.95264140    -0.06200
C1805       C  0.90732807  0.79637921  0.99762503    -0.00300
C1806       C  0.89647108  0.81734455  0.01752152    -0.08700
C1807       C  0.90250985  0.82796381  0.06592093     0.61600
H1808       H  0.86719076  0.84097256  0.00788129     0.12300
H1809       H  0.90823437  0.77280120  0.93650528     0.12300
C1810       C  0.87294967  0.78667487  0.88058048     0.61900
F1811       F  0.89096641  0.84924287  0.07678211    -0.23300
F1812       F  0.93581662  0.84428196  0.07474471    -0.20600
F1813       F  0.88635238  0.80062300  0.09295815    -0.20300
F1814       F  0.85908644  0.80263412  0.85876855    -0.20400
F1815       F  0.85160850  0.75302585  0.87923627    -0.20700
F1816       F  0.90171791  0.79378204  0.85856226    -0.23400
C1817       C  0.07787753  0.90407857  0.03990850    -0.06200
C1818       C  0.10141207  0.89444884  0.03112904    -0.00300
C1819       C  0.09579452  0.86370945  0.04762925    -0.08800
C1820       C  0.06641673  0.84340633  0.07134516    -0.06200
C1821       C  0.04123873  0.85136276  0.07586923    -0.00300
C1822       C  0.04745922  0.88259449  0.06075664    -0.08700
C1823       C  0.02075638  0.89180289  0.06322457     0.61600
H1824       H  0.08219229  0.92737733  0.02675084     0.12300
H1825       H  0.06125639  0.81925229  0.08218005     0.12300
C1826       C  0.11994074  0.85160792  0.03836168     0.61900
F1827       F  0.03263539  0.92459319  0.05261450    -0.23300
F1828       F  0.00794032  0.88656794  0.10570079    -0.20600
F1829       F  0.99597539  0.87255902  0.03387171    -0.20300
F1830       F  0.10988850  0.82113291  0.05731723    -0.20400
F1831       F  0.15033805  0.87362623  0.05540032    -0.20700
F1832       F  0.12301489  0.84874355  0.99324056    -0.23400
C1833       C  0.85478341  0.64694173  0.15866426    -0.06200
C1834       C  0.85753640  0.67771736  0.14695287    -0.00300
C1835       C  0.82972425  0.68153147  0.15464038    -0.08800
C1836       C  0.80119805  0.65519209  0.17436094    -0.06200
C1837       C  0.79899360  0.62490614  0.18650703    -0.00300
C1838       C  0.82623430  0.62063419  0.17784711    -0.08700
C1839       C  0.82554646  0.58873329  0.18956460     0.61600
H1840       H  0.87552722  0.64325903  0.15288961     0.12300
H1841       H  0.78004378  0.65816993  0.18066479     0.12300
C1842       C  0.82984519  0.71298700  0.14229057     0.61900
F1843       F  0.85590002  0.59097486  0.18334128    -0.23300
F1844       F  0.80302352  0.56349340  0.16302775    -0.20600
F1845       F  0.81672773  0.58100005  0.23353105    -0.20300
F1846       F  0.83670593  0.71924460  0.09762991    -0.20400
F1847       F  0.85339182  0.73903201  0.16674062    -0.20700
F1848       F  0.79974758  0.71087532  0.15060514    -0.23400
C1849       C  0.08185983  0.71596477  0.05864383    -0.06200
C1850       C  0.07876183  0.70421213  0.10252129    -0.00300
C1851       C  0.06273232  0.71373553  0.13419493    -0.08800
C1852       C  0.04638400  0.73039967  0.11947594    -0.06200
C1853       C  0.04540337  0.73775517  0.07450636    -0.00300
C1854       C  0.06496682  0.73217793  0.04404380    -0.08700
C1855       C  0.06494342  0.74014257  0.99557057     0.61600
H1856       H  0.09460816  0.70902846  0.03458608     0.12300
H1857       H  0.03095409  0.73420586  0.14237352     0.12300
C1858       C  0.06032812  0.70382261  0.18243253     0.61900
F1859       F  0.08772760  0.73565908  0.97178197    -0.23300
F1860       F  0.07277857  0.77266127  0.99105459    -0.20600
F1861       F  0.03406774  0.71997920  0.97792775    -0.20300
F1862       F  0.09162542  0.71590084  0.19930188    -0.20400
F1863       F  0.04307717  0.66984855  0.18620004    -0.20700
F1864       F  0.04433655  0.71627436  0.20794193    -0.23400
C1865       C  0.90996103  0.57058462  0.60890593    -0.06200
C1866       C  0.87746153  0.55242651  0.62422679    -0.00300
C1867       C  0.85304589  0.52764846  0.59711895    -0.08800
C1868       C  0.86270710  0.52047389  0.55673536    -0.06200
C1869       C  0.89547696  0.53757914  0.54164538    -0.00300
C1870       C  0.91960997  0.56390619  0.56772307    -0.08700
C1871       C  0.95526354  0.58501570  0.55309918     0.61600
H1872       H  0.92801772  0.58955278  0.63023651     0.12300
H1873       H  0.84424061  0.50075461  0.53679708     0.12300
C1874       C  0.81672284  0.50888795  0.60985111     0.61900
F1875       F  0.97343440  0.60987280  0.58315989    -0.23300
F1876       F  0.95675641  0.59996924  0.51317406    -0.20600
F1877       F  0.96987991  0.56568739  0.54891457    -0.20300
F1878       F  0.80675673  0.53069621  0.62430318    -0.20400
F1879       F  0.81143553  0.48636994  0.64285260    -0.20700
F1880       F  0.79700571  0.49156354  0.57439488    -0.23400
C1881       C  0.74048483  0.48331006  0.83311049    -0.06200
C1882       C  0.76797954  0.51116182  0.85087777    -0.00300
C1883       C  0.76346565  0.52695015  0.88807920    -0.08800
C1884       C  0.73135459  0.51584309  0.90439610    -0.06200
C1885       C  0.70349789  0.49070331  0.88318911    -0.00300
C1886       C  0.70818973  0.47287971  0.84850485    -0.08700
C1887       C  0.67908252  0.44464975  0.82560015     0.61600
H1888       H  0.74428943  0.47130393  0.80473903     0.12300
H1889       H  0.72740499  0.52951173  0.93050081     0.12300
C1890       C  0.79209273  0.55733479  0.90770987     0.61900
F1891       F  0.68885893  0.42864427  0.79562322    -0.23300
F1892       F  0.66158343  0.45639099  0.80287422    -0.20600
F1893       F  0.65882601  0.42193154  0.85677619    -0.20300
F1894       F  0.80616939  0.58154060  0.87564111    -0.20400
F1895       F  0.81512458  0.54951635  0.92295952    -0.20700
F1896       F  0.78232264  0.56974829  0.94271807    -0.23400
C1897       C  0.82342640  0.62322227  0.65019446    -0.06200
C1898       C  0.83747516  0.63220435  0.69250999    -0.00300
C1899       C  0.85270002  0.66642731  0.70447516    -0.08800
C1900       C  0.85284405  0.68950619  0.67408866    -0.06200
C1901       C  0.83740309  0.68030810  0.63279115    -0.00300
C1902       C  0.82334690  0.64638892  0.62001017    -0.08700
C1903       C  0.80894150  0.63420409  0.57424426     0.61600
H1904       H  0.81284820  0.59764778  0.64040328     0.12300
H1905       H  0.86485176  0.71533748  0.68286613     0.12300
C1906       C  0.86898456  0.67938133  0.74915961     0.61900
F1907       F  0.80481826  0.60330130  0.56518437    -0.23300
F1908       F  0.82977335  0.65554443  0.54216736    -0.20600
F1909       F  0.77845911  0.63193903  0.57141692    -0.20300
F1910       F  0.89846424  0.67938864  0.75061810    -0.20400
F1911       F  0.84841378  0.66004025  0.78290264    -0.20700
F1912       F  0.87585517  0.71139884  0.75684200    -0.23400
C1913       C  0.94658011  0.68487381  0.92258488    -0.06200
C1914       C  0.92522712  0.67563725  0.95954487    -0.00300
C1915       C  0.89335992  0.64792003  0.95631921    -0.08800
C1916       C  0.88454644  0.63010493  0.91643805    -0.06200
C1917       C  0.90619120  0.63879715  0.87989079    -0.00300
C1918       C  0.93766441  0.66729297  0.88260738    -0.08700
C1919       C  0.96218235  0.67921759  0.84434181     0.61600
H1920       H  0.97091276  0.70617983  0.92526003     0.12300
H1921       H  0.86059730  0.60854521  0.91393850     0.12300
C1922       C  0.86867333  0.63700159  0.99428856     0.61900
F1923       F  0.99152167  0.70710169  0.85526375    -0.23300
F1924       F  0.94909506  0.68709987  0.80870093    -0.20600
F1925       F  0.96943594  0.65503124  0.83207382    -0.20300
F1926       F  0.86381244  0.66271025  0.00720773    -0.20400
F1927       F  0.88007912  0.62695923  0.02968500    -0.20700
F1928       F  0.83845536  0.61083228  0.98253291    -0.23400
C1929       C  0.02392411  0.76974331  0.21273066    -0.06200
C1930       C  0.98961863  0.74955686  0.21396035    -0.00300
C1931       C  0.97267382  0.74100206  0.25490521    -0.08800
C1932       C  0.99090421  0.75395934  0.29376173    -0.06200
C1933       C  0.02518947  0.77412627  0.29240149    -0.00300
C1934       C  0.04227541  0.78153783  0.25169647    -0.08700
C1935       C  0.07942117  0.80292820  0.24953651     0.61600
H1936       H  0.03611308  0.77758958  0.18094673     0.12300
H1937       H  0.97851191  0.74883161  0.32557751     0.12300
C1938       C  0.93563818  0.71843941  0.25732695     0.61900
F1939       F  0.09107167  0.80761943  0.20641121    -0.23300
F1940       F  0.09386903  0.78807517  0.27275081    -0.20600
F1941       F  0.08879677  0.83345614  0.26796040    -0.20300
F1942       F  0.92726740  0.68880080  0.23678427    -0.20400
F1943       F  0.91979767  0.73282331  0.23638670    -0.20700
F1944       F  0.92441805  0.71190654  0.30065806    -0.23400
C1945       C  0.12940585  0.92295925  0.57410054    -0.06200
C1946       C  0.13142502  0.95236290  0.55889196    -0.00300
C1947       C  0.10866954  0.95013476  0.52653414    -0.08800
C1948       C  0.08825970  0.91946463  0.50581777    -0.06200
C1949       C  0.08936291  0.89098792  0.51739142    -0.00300
C1950       C  0.10869859  0.89222381  0.55385641    -0.08700
C1951       C  0.10912220  0.86159427  0.56908185     0.61600
H1952       H  0.14678762  0.92481860  0.59899689     0.12300
H1953       H  0.07279841  0.91795541  0.47839645     0.12300
C1954       C  0.10819172  0.98053326  0.51093599     0.61900
F1955       F  0.13077919  0.86821102  0.60366034    -0.23300
F1956       F  0.11858989  0.84871872  0.53440547    -0.20600
F1957       F  0.07800456  0.83835116  0.58331430    -0.20300
F1958       F  0.13652708  0.00016568  0.48715421    -0.20400
F1959       F  0.10631642  0.99782788  0.54707860    -0.20700
F1960       F  0.08147363  0.97263485  0.48400803    -0.23400
C1961       C  0.92829552  0.82724615  0.48762641    -0.06200
C1962       C  0.90039552  0.79797057  0.47400904    -0.00300
C1963       C  0.90323259  0.78064199  0.43736258    -0.08800
C1964       C  0.93477733  0.79060358  0.41950910    -0.06200
C1965       C  0.96333889  0.81794256  0.43637581    -0.00300
C1966       C  0.95960588  0.83812783  0.46835034    -0.08700
C1967       C  0.98892151  0.86981985  0.48423019     0.61600
H1968       H  0.92576170  0.84062849  0.51527291     0.12300
H1969       H  0.93772472  0.77536413  0.39481128     0.12300
C1970       C  0.87317953  0.75088846  0.41888279     0.61900
F1971       F  0.97942273  0.88801025  0.51053701    -0.23300
F1972       F  0.00603895  0.88896294  0.44819082    -0.20600
F1973       F  0.00937677  0.86277958  0.50870661    -0.20300
F1974       F  0.88089245  0.73743680  0.38297602    -0.20400
F1975       F  0.85102198  0.76035834  0.40511059    -0.20700
F1976       F  0.85872313  0.72691682  0.45118368    -0.23400
C1977       C  0.15285320  0.80489700  0.34769429    -0.06200
C1978       C  0.14897258  0.83281326  0.35364073    -0.00300
C1979       C  0.17125482  0.86213797  0.33108319    -0.08800
C1980       C  0.19666565  0.86250676  0.30450255    -0.06200
C1981       C  0.20084293  0.83462023  0.29911101    -0.00300
C1982       C  0.17793089  0.80508138  0.32089281    -0.08700
C1983       C  0.17935438  0.77349324  0.31566458     0.61600
H1984       H  0.13559508  0.78229357  0.36425087     0.12300
H1985       H  0.21402650  0.88518760  0.28819456     0.12300
C1986       C  0.16894861  0.89323398  0.33609076     0.61900
F1987       F  0.15182927  0.74659593  0.33341823    -0.23300
F1988       F  0.20666963  0.77655297  0.33723569    -0.20600
F1989       F  0.18098356  0.76708548  0.27122179    -0.20300
F1990       F  0.16887734  0.90056898  0.38050793    -0.20400
F1991       F  0.14033309  0.88869828  0.31677683    -0.20700
F1992       F  0.19517530  0.92007543  0.31600871    -0.23400
C1993       C  0.96906734  0.68363557  0.37889401    -0.06200
C1994       C  0.97249445  0.69299775  0.42391741    -0.00300
C1995       C  0.95227741  0.66949313  0.45585252    -0.08800
C1996       C  0.93181011  0.63677895  0.44184465    -0.06200
C1997       C  0.93303868  0.62655524  0.39819585    -0.00300
C1998       C  0.95027422  0.65060499  0.36541786    -0.08700
C1999       C  0.95121285  0.64145980  0.31730569     0.61600
H2000       H  0.98372966  0.70211479  0.35451187     0.12300
H2001       H  0.91746662  0.61801325  0.46614917     0.12300
C2002       C  0.95429893  0.67790363  0.50475798     0.61900
F2003       F  0.96872344  0.66901565  0.29093814    -0.23300
F2004       F  0.91950709  0.62401820  0.30111723    -0.20600
F2005       F  0.96613489  0.62240100  0.31380315    -0.20300
F2006       F  0.94561839  0.70188574  0.51130627    -0.20400
F2007       F  0.98601832  0.68928531  0.51966361    -0.20700
F2008       F  0.93335632  0.65078274  0.53007778    -0.23400
C2009       C  0.13038669  0.65097433  0.88774753    -0.06200
C2010       C  0.11612660  0.67009952  0.87559604    -0.00300
C2011       C  0.09036539  0.66896469  0.90227654    -0.08800
C2012       C  0.08327944  0.65221076  0.94291918    -0.06200
C2013       C  0.09980352  0.63563784  0.95599437    -0.00300
C2014       C  0.12162206  0.63263610  0.92653182    -0.08700
C2015       C  0.13671609  0.61107538  0.93563121     0.61600
H2016       H  0.14889943  0.65028038  0.86684252     0.12300
H2017       H  0.06585697  0.65318729  0.96577339     0.12300
C2018       C  0.07051717  0.68521761  0.88904956     0.61900
F2019       F  0.14177284  0.59861965  0.89660928    -0.23300
F2020       F  0.11617307  0.58437819  0.96153146    -0.20600
F2021       F  0.16658802  0.62943061  0.95664361    -0.20300
F2022       F  0.05577680  0.67321053  0.84858879    -0.20400
F2023       F  0.09075143  0.71900920  0.88655334    -0.20700
F2024       F  0.04565041  0.67878958  0.91918483    -0.23400
C2025       C  0.23542304  0.75652508  0.61325544    -0.06200
C2026       C  0.23567597  0.74593513  0.65652038    -0.00300
C2027       C  0.26626669  0.75235635  0.67480965    -0.08800
C2028       C  0.29560746  0.77210237  0.65092130    -0.06200
C2029       C  0.29561947  0.78672529  0.61056240    -0.00300
C2030       C  0.26491296  0.77717844  0.59020504    -0.08700
C2031       C  0.26206329  0.78943419  0.54510420     0.61600
H2032       H  0.21209006  0.75063723  0.59848655     0.12300
H2033       H  0.31914118  0.77978364  0.66639170     0.12300
C2034       C  0.26838657  0.73925738  0.71984346     0.61900
F2035       F  0.24541629  0.80683218  0.54895763    -0.23300
F2036       F  0.24456314  0.76268653  0.51743510    -0.20600
F2037       F  0.29233840  0.80962268  0.52581457    -0.20300
F2038       F  0.24736138  0.70557939  0.72128901    -0.20400
F2039       F  0.26005193  0.75439166  0.75284424    -0.20700
F2040       F  0.29983858  0.74512489  0.72851585    -0.23400
C2041       C  0.02641141  0.61029608  0.78581883    -0.06200
C2042       C  0.03558368  0.61786814  0.74087558    -0.00300
C2043       C  0.01168688  0.60031919  0.70838067    -0.08800
C2044       C  0.97837952  0.58369557  0.72159845    -0.06200
C2045       C  0.96885550  0.58310392  0.76630811    -0.00300
C2046       C  0.99316659  0.59261682  0.79924835    -0.08700
C2047       C  0.98441699  0.58495948  0.84780825     0.61600
H2048       H  0.04548780  0.62052792  0.81066318     0.12300
H2049       H  0.95945934  0.57343613  0.69648524     0.12300
C2050       C  0.02094141  0.59965445  0.66043768     0.61900
F2051       F  0.01198638  0.59330255  0.87317844    -0.23300
F2052       F  0.96302415  0.55150605  0.85271508    -0.20600
F2053       F  0.96968157  0.60217878  0.86393065    -0.20300
F2054       F  0.04548041  0.59141310  0.65804214    -0.20400
F2055       F  0.03195503  0.63011920  0.64116709    -0.20700
F2056       F  0.99439415  0.57633505  0.63653677    -0.23400
C2057       C  0.05937963  0.74597963  0.58419074    -0.06200
C2058       C  0.08196995  0.75962033  0.54901053    -0.00300
C2059       C  0.11386671  0.76398587  0.55316020    -0.08800
C2060       C  0.12173152  0.75345356  0.59231945    -0.06200
C2061       C  0.09870395  0.73843515  0.62688677    -0.00300
C2062       C  0.06696223  0.73496947  0.62315952    -0.08700
C2063       C  0.04070380  0.71878819  0.65893158     0.61600
H2064       H  0.03520177  0.74332194  0.58034974     0.12300
H2065       H  0.14597486  0.75622339  0.59581252     0.12300
C2066       C  0.13951828  0.77980507  0.51677847     0.61900
F2067       F  0.01105368  0.71609156  0.64656616    -0.23300
F2068       F  0.05080868  0.73736536  0.69732127    -0.20600
F2069       F  0.03506628  0.68736837  0.66739589    -0.20300
F2070       F  0.14292807  0.80993573  0.50533280    -0.20400
F2071       F  0.13001145  0.75949083  0.48000627    -0.20700
F2072       F  0.17002662  0.78510895  0.52992625    -0.23400
C2073       C  0.15582292  0.81974582  0.79736740    -0.06200
C2074       C  0.16987792  0.80132898  0.81396297    -0.00300
C2075       C  0.18500375  0.81033383  0.85630531    -0.08800
C2076       C  0.18428418  0.83616341  0.88046243    -0.06200
C2077       C  0.16956081  0.85407955  0.86421389    -0.00300
C2078       C  0.15575337  0.84601685  0.82101012    -0.08700
C2079       C  0.14206374  0.86565288  0.79862483     0.61600
H2080       H  0.14459224  0.81330399  0.76500151     0.12300
H2081       H  0.19558317  0.84273315  0.91278913     0.12300
C2082       C  0.20164881  0.79277053  0.87655073     0.61900
F2083       F  0.13122665  0.85452305  0.75611519    -0.23300
F2084       F  0.16632515  0.89835948  0.79562264    -0.20600
F2085       F  0.11564254  0.86307208  0.82259930    -0.20300
F2086       F  0.22639777  0.79544116  0.84863897    -0.20400
F2087       F  0.17882873  0.75988396  0.88317318    -0.20700
F2088       F  0.21577383  0.80615970  0.91702914    -0.23400
C2089       C  0.29450164  0.50780098  0.14309699    -0.06200
C2090       C  0.29578608  0.48701613  0.11054257    -0.00300
C2091       C  0.26584037  0.46024841  0.09481370    -0.08800
C2092       C  0.23591791  0.45300490  0.11561024    -0.06200
C2093       C  0.23520070  0.47134171  0.15200766    -0.00300
C2094       C  0.26467599  0.50023409  0.16457955    -0.08700
C2095       C  0.26494318  0.52241013  0.20159192     0.61600
H2096       H  0.31753935  0.52789763  0.15513210     0.12300
H2097       H  0.21329902  0.43112628  0.10612485     0.12300
C2098       C  0.26587186  0.43700526  0.05965774     0.61900
F2099       F  0.29548352  0.55041012  0.20607777    -0.23300
F2100       F  0.25690543  0.50570940  0.24137800    -0.20600
F2101       F  0.24242686  0.53239781  0.19259331    -0.20300
F2102       F  0.27484518  0.41572393  0.07829061    -0.20400
F2103       F  0.28790587  0.45476949  0.02629304    -0.20700
F2104       F  0.23507744  0.41846726  0.04091262    -0.23400
C2105       C  0.17845858  0.54038368  0.18429442    -0.06200
C2106       C  0.16170581  0.52417449  0.22294545    -0.00300
C2107       C  0.14009897  0.53379689  0.24273457    -0.08800
C2108       C  0.13495068  0.55796081  0.22179128    -0.06200
C2109       C  0.14992894  0.57227024  0.18107184    -0.00300
C2110       C  0.17323696  0.56413214  0.16303678    -0.08700
C2111       C  0.19297464  0.57849346  0.12086263     0.61600
H2112       H  0.19356211  0.53204791  0.16768799     0.12300
H2113       H  0.11720381  0.56393992  0.23591224     0.12300
C2114       C  0.12068957  0.51821746  0.28467802     0.61900
F2115       F  0.22611543  0.59232960  0.13023028    -0.23300
F2116       F  0.18836360  0.60259410  0.10211702    -0.20600
F2117       F  0.18445347  0.55355237  0.09009739    -0.20300
F2118       F  0.12856716  0.49615490  0.30345154    -0.20400
F2119       F  0.08742408  0.50179453  0.27527176    -0.20700
F2120       F  0.12714179  0.54266902  0.31549207    -0.23400
C2121       C  0.19911599  0.33203000  0.36244887    -0.06200
C2122       C  0.17413635  0.29843820  0.35927892    -0.00300
C2123       C  0.14730792  0.29081499  0.33095666    -0.08800
C2124       C  0.14662932  0.31664889  0.30728232    -0.06200
C2125       C  0.17188726  0.35020904  0.30986742    -0.00300
C2126       C  0.19873242  0.35780364  0.33824048    -0.08700
C2127       C  0.22742262  0.39269916  0.34234277     0.61600
H2128       H  0.21968572  0.33815418  0.38408568     0.12300
H2129       H  0.12574414  0.31047061  0.28628094     0.12300
C2130       C  0.11980659  0.25553941  0.32471573     0.61900
F2131       F  0.25261694  0.39408274  0.36763013    -0.23300
F2132       F  0.21699983  0.41261081  0.36232514    -0.20600
F2133       F  0.24010010  0.40488847  0.30077916    -0.20300
F2134       F  0.10392631  0.24316751  0.36468008    -0.20400
F2135       F  0.13262372  0.23633747  0.30917829    -0.20700
F2136       F  0.09663545  0.25325378  0.29458049    -0.23400
C2137       C  0.09377909  0.17895942  0.04957222    -0.06200
C2138       C  0.09053837  0.17466725  0.00348163    -0.00300
C2139       C  0.10363315  0.15630387  0.98247898    -0.05200
C2140       C  0.12303342  0.14689914  0.00741755    -0.06200
C2141       C  0.13008157  0.15538758  0.05225658    -0.00300
C2142       C  0.11313684  0.16939705  0.07420948    -0.08700
C2143       C  0.11584444  0.17582928  0.12329699     0.61600
H2144       H  0.08252606  0.19147386  0.06632166     0.12300
H2145       H  0.13595722  0.13610197  0.99067057     0.12300
C2146       C  0.09805596  0.14721684  0.93372334     0.61900
F2147       F  0.08468024  0.16115629  0.14187485    -0.23300
F2148       F  0.13114260  0.20945911  0.13051349    -0.20600
F2149       F  0.13328977  0.16300318  0.14387899    -0.20300
F2150       F  0.11622163  0.17493362  0.90801667    -0.20400
F2151       F  0.06500457  0.13350967  0.92392457    -0.20700
F2152       F  0.10751542  0.12435704  0.92255931    -0.23400
C2153       C  0.96266190  0.10335340  0.96134469    -0.06200
C2154       C  0.96276015  0.12669103  0.93235632    -0.00300
C2155       C  0.93216224  0.12410794  0.92094641    -0.08800
C2156       C  0.90312477  0.10069731  0.94262906    -0.06200
C2157       C  0.90359034  0.07961989  0.97507284    -0.00300
C2158       C  0.93366032  0.08011816  0.98345318    -0.08700
C2159       C  0.93538067  0.05687741  0.01664734     0.61600
H2160       H  0.98614279  0.10583849  0.97030791     0.12300
H2161       H  0.88017665  0.10022758  0.93597486     0.12300
C2162       C  0.92945932  0.14730716  0.88857013     0.61900
F2163       F  0.96675542  0.06117892  0.01968458    -0.23300
F2164       F  0.91450466  0.02487648  0.00355234    -0.20600
F2165       F  0.92614825  0.06196292  0.05816236    -0.20300
F2166       F  0.95818775  0.16574132  0.86468316    -0.20400
F2167       F  0.92199168  0.16845541  0.91148396    -0.20700
F2168       F  0.90453399  0.12925951  0.85873806    -0.23400
C2169       C  0.06760303  0.29012123  0.08550905    -0.06200
C2170       C  0.08379239  0.30280513  0.04504625    -0.00300
C2171       C  0.11115513  0.33498313  0.04333936    -0.08800
C2172       C  0.11976177  0.35432648  0.08197863    -0.06200
C2173       C  0.10249156  0.34229268  0.12233568    -0.00300
C2174       C  0.07672686  0.30890943  0.12456510    -0.08700
C2175       C  0.05867810  0.29263952  0.16730660     0.61600
H2176       H  0.04709320  0.26512001  0.08607548     0.12300
H2177       H  0.14015729  0.37934699  0.08061204     0.12300
C2178       C  0.13190866  0.34839400  0.00164389     0.61900
F2179       F  0.03558699  0.25970799  0.16126644    -0.23300
F2180       F  0.04226224  0.30828754  0.18339098    -0.20600
F2181       F  0.08095641  0.29411699  0.19834390    -0.20300
F2182       F  0.11395954  0.35279585  0.96897599    -0.20400
F2183       F  0.14171173  0.32652837  0.98686211    -0.20700
F2184       F  0.15995873  0.37845710  0.00909620    -0.23400
C2185       C  0.14603784  0.33284528  0.84883501    -0.06200
C2186       C  0.14425993  0.30178016  0.85308712    -0.00300
C2187       C  0.16886762  0.29737698  0.83215029    -0.08800
C2188       C  0.19363601  0.32372686  0.80721914    -0.06200
C2189       C  0.19531235  0.35474376  0.80274850    -0.00300
C2190       C  0.17105928  0.35934723  0.82444539    -0.08700
C2191       C  0.17099875  0.39169854  0.82121310     0.61600
H2192       H  0.12721088  0.33631929  0.86474167     0.12300
H2193       H  0.21248088  0.32025138  0.79138980     0.12300
C2194       C  0.16984404  0.26561033  0.83737733     0.61900
F2195       F  0.14331396  0.38984465  0.84079203    -0.23300
F2196       F  0.17154781  0.40002089  0.77721569    -0.20600
F2197       F  0.19829706  0.41632804  0.84239917    -0.20300
F2198       F  0.14310530  0.24005864  0.81655554    -0.20400
F2199       F  0.16912657  0.25834878  0.88184845    -0.20700
F2200       F  0.19806949  0.26790452  0.81901180    -0.23400
C2201       C  0.13505618  0.45875235  0.38976306    -0.06200
C2202       C  0.11890311  0.42567818  0.37572065    -0.00300
C2203       C  0.09221209  0.40163289  0.40145994    -0.08800
C2204       C  0.08420376  0.41177004  0.44144497    -0.06200
C2205       C  0.10174601  0.44463267  0.45582156    -0.00300
C2206       C  0.12667235  0.46887359  0.42860830    -0.08700
C2207       C  0.14527629  0.50548236  0.44015125     0.61600
H2208       H  0.15529184  0.47726453  0.37045349     0.12300
H2209       H  0.06511974  0.39383034  0.46286287     0.12300
C2210       C  0.07263519  0.36555404  0.38810567     0.61900
F2211       F  0.16106315  0.52478815  0.40356007    -0.23300
F2212       F  0.16895147  0.51158161  0.47161866    -0.20600
F2213       F  0.12375349  0.51531252  0.45599421    -0.20300
F2214       F  0.09309083  0.35212357  0.38662254    -0.20400
F2215       F  0.05853862  0.36253334  0.34714180    -0.20700
F2216       F  0.04739615  0.34730421  0.41771648    -0.23400
C2217       C  0.14289157  0.56269270  0.72026121    -0.06200
C2218       C  0.14921365  0.56196601  0.67478192    -0.00300
C2219       C  0.16777848  0.59252588  0.65198503    -0.08800
C2220       C  0.17678991  0.62218347  0.67465337    -0.06200
C2221       C  0.16647508  0.62251073  0.71812642    -0.00300
C2222       C  0.15046971  0.59256827  0.74193774    -0.08700
C2223       C  0.14019198  0.59250925  0.78947459     0.61600
H2224       H  0.12939438  0.53950352  0.73771824     0.12300
H2225       H  0.18835812  0.64526753  0.65661869     0.12300
C2226       C  0.17610477  0.59444723  0.60295129     0.61900
F2227       F  0.12810703  0.56183872  0.80885163    -0.23300
F2228       F  0.11599173  0.60123306  0.79146035    -0.20600
F2229       F  0.16720827  0.61510848  0.81330779    -0.20300
F2230       F  0.14829257  0.58590549  0.57815186    -0.20400
F2231       F  0.18807456  0.57353665  0.59289415    -0.20700
F2232       F  0.19994909  0.62594402  0.59066553    -0.23400
C2233       C  0.25216765  0.50035031  0.64447800    -0.06200
C2234       C  0.24875999  0.46881454  0.64041200    -0.00300
C2235       C  0.22356772  0.44522295  0.61317083    -0.08800
C2236       C  0.20024678  0.45261496  0.59525082    -0.06200
C2237       C  0.20129824  0.48281036  0.60370774    -0.00300
C2238       C  0.22916855  0.50799656  0.62563200    -0.08700
C2239       C  0.23377750  0.54225302  0.63057850     0.61600
H2240       H  0.27175074  0.51833694  0.66497501     0.12300
H2241       H  0.17910455  0.43358580  0.57788033     0.12300
C2242       C  0.22056607  0.41180631  0.60497265     0.61900
F2243       F  0.26321709  0.56360521  0.65101806    -0.23300
F2244       F  0.20844559  0.54116954  0.65558252    -0.20600
F2245       F  0.23400561  0.55464699  0.58903863    -0.20300
F2246       F  0.21597987  0.39533997  0.64459546    -0.20400
F2247       F  0.24905136  0.41618879  0.58491899    -0.20700
F2248       F  0.19441103  0.39225198  0.57755055    -0.23400
C2249       C  0.99353109  0.46200171  0.52313396    -0.06200
C2250       C  0.02570556  0.48967618  0.52580857    -0.00300
C2251       C  0.03203180  0.51869298  0.50314819    -0.08800
C2252       C  0.00641456  0.51869037  0.47851611    -0.06200
C2253       C  0.97435573  0.49090741  0.47533876    -0.00300
C2254       C  0.96787701  0.46200526  0.49849401    -0.08700
C2255       C  0.93445860  0.43093234  0.49640385     0.61600
H2256       H  0.98854204  0.43967453  0.54017277     0.12300
H2257       H  0.01144850  0.54106787  0.46159007     0.12300
C2258       C  0.06532734  0.54987747  0.50554426     0.61900
F2259       F  0.93432576  0.40473144  0.51775854    -0.23300
F2260       F  0.92594717  0.42196770  0.45269179    -0.20600
F2261       F  0.91101187  0.43639749  0.51658193    -0.20300
F2262       F  0.08862658  0.54506203  0.48378692    -0.20400
F2263       F  0.07435676  0.55796898  0.54930856    -0.20700
F2264       F  0.06498678  0.57640730  0.48593468    -0.23400
C2265       C  0.87450624  0.42989650  0.78942153    -0.06200
C2266       C  0.85558452  0.41211751  0.82602976    -0.00300
C2267       C  0.82668651  0.41341940  0.83679239    -0.08800
C2268       C  0.81989599  0.43559743  0.81372579    -0.06200
C2269       C  0.84126792  0.45652496  0.78084943    -0.00300
C2270       C  0.86779899  0.45211960  0.76656960    -0.08700
C2271       C  0.89124825  0.47354784  0.73044278     0.61600
H2272       H  0.89620891  0.42831196  0.78100633     0.12300
H2273       H  0.79988595  0.43931379  0.82460558     0.12300
C2274       C  0.80355170  0.39202099  0.87318288     0.61900
F2275       F  0.90885773  0.45952290  0.71297557    -0.23300
F2276       F  0.91331992  0.50417579  0.74742531    -0.20600
F2277       F  0.87384340  0.47739453  0.69640759    -0.20300
F2278       F  0.81911772  0.40108841  0.91368592    -0.20400
F2279       F  0.79390168  0.35935861  0.86485899    -0.20700
F2280       F  0.77553155  0.39484756  0.87565450    -0.23400
C2281       C  0.76206487  0.22815328  0.89408699    -0.06200
C2282       C  0.75528648  0.22789480  0.84890117    -0.00300
C2283       C  0.76796811  0.25871569  0.82665335    -0.08800
C2284       C  0.79009202  0.28788933  0.84895528    -0.06200
C2285       C  0.80024251  0.28766402  0.89236003    -0.00300
C2286       C  0.78460882  0.25749877  0.91609207    -0.08700
C2287       C  0.79159347  0.25447260  0.96391967     0.61600
H2288       H  0.75145835  0.20493182  0.91172034     0.12300
H2289       H  0.80239401  0.31088437  0.83078330     0.12300
C2290       C  0.75993292  0.26135579  0.77873733     0.61900
F2291       F  0.76271373  0.24221722  0.98812614    -0.23300
F2292       F  0.81430141  0.28432918  0.98226888    -0.20600
F2293       F  0.80314517  0.23249732  0.96672573    -0.20300
F2294       F  0.72670831  0.24130848  0.77126127    -0.20400
F2295       F  0.77761257  0.25227084  0.75087862    -0.20700
F2296       F  0.76782544  0.29325291  0.76813385    -0.23400
C2297       C  0.95498549  0.30032055  0.95736279    -0.06200
C2298       C  0.94027102  0.29634014  0.91537667    -0.00300
C2299       C  0.93599890  0.26976991  0.88829370    -0.08800
C2300       C  0.95148771  0.25182343  0.90122951    -0.06200
C2301       C  0.96986308  0.25918779  0.94068034    -0.00300
C2302       C  0.96978355  0.28227705  0.97059453    -0.08700
C2303       C  0.98835361  0.29071981  0.01412830     0.61600
H2304       H  0.95634865  0.31913590  0.97967714     0.12300
H2305       H  0.95166792  0.23370020  0.87889878     0.12300
C2306       C  0.91643162  0.26112555  0.84577837     0.61900
F2307       F  0.98302386  0.31239929  0.03951443    -0.23300
F2308       F  0.02169903  0.30540612  0.00578377    -0.20600
F2309       F  0.97825839  0.26239671  0.03869623    -0.20300
F2310       F  0.93124567  0.28705217  0.81627372    -0.20400
F2311       F  0.88480087  0.25468259  0.85496757    -0.20700
F2312       F  0.91423066  0.23339456  0.82575508    -0.23400
C2313       C  0.96816799  0.40480122  0.74910381    -0.06200
C2314       C  0.98168909  0.40840926  0.79169424    -0.00300
C2315       C  0.01643976  0.42314124  0.79590358    -0.08800
C2316       C  0.03555703  0.43096618  0.75717168    -0.06200
C2317       C  0.02180559  0.42564625  0.71461487    -0.00300
C2318       C  0.98756825  0.41341519  0.71043156    -0.08700
C2319       C  0.97139796  0.40996498  0.66581854     0.61600
H2320       H  0.94185288  0.39448760  0.74605723     0.12300
H2321       H  0.06181834  0.44081239  0.76000258     0.12300
C2322       C  0.03389060  0.43048760  0.84040933     0.61900
F2323       F  0.93877936  0.40183381  0.67018690    -0.23300
F2324       F  0.97231241  0.38538201  0.64129469    -0.20600
F2325       F  0.98765176  0.43951753  0.64319572    -0.20300
F2326       F  0.02461224  0.40140733  0.86282919    -0.20400
F2327       F  0.02621790  0.45066485  0.86541831    -0.20700
F2328       F  0.06779557  0.44666989  0.83576528    -0.23400
C2329       C  0.00368293  0.47033693  0.98983731    -0.06200
C2330       C  0.97195009  0.46706291  0.98824517    -0.00300
C2331       C  0.96670324  0.49005396  0.01227999    -0.08800
C2332       C  0.99349004  0.51596100  0.03522031    -0.06200
C2333       C  0.02562633  0.51993894  0.03562049    -0.00300
C2334       C  0.03040024  0.49598841  0.01308715    -0.08700
C2335       C  0.06326083  0.49698953  0.01364259     0.61600
H2336       H  0.00765542  0.45241990  0.97216152     0.12300
H2337       H  0.98943293  0.53401813  0.05233833     0.12300
C2338       C  0.93337582  0.48801573  0.01246622     0.61900
F2339       F  0.06113890  0.46869315  0.99566532    -0.23300
F2340       F  0.07424604  0.49993353  0.05670251    -0.20600
F2341       F  0.08598580  0.52343694  0.98909786    -0.20300
F2342       F  0.91042859  0.45916384  0.03284139    -0.20400
F2343       F  0.92369912  0.48846074  0.96944219    -0.20700
F2344       F  0.93397441  0.51415138  0.03507032    -0.23400
C2345       C  0.00964031  0.19888967  0.71593629    -0.06200
C2346       C  0.98711428  0.20977293  0.70691901    -0.00300
C2347       C  0.98586287  0.23330121  0.73593091    -0.08800
C2348       C  0.00450507  0.24187645  0.77517184    -0.06200
C2349       C  0.02482428  0.22873643  0.78499971    -0.00300
C2350       C  0.02913883  0.20868111  0.75380097    -0.08700
C2351       C  0.05382364  0.19700650  0.76070939     0.61600
H2352       H  0.01183778  0.18204457  0.69338457     0.12300
H2353       H  0.00233712  0.25782903  0.79946041     0.12300
C2354       C  0.96497259  0.24909751  0.72661534     0.61900
F2355       F  0.06254198  0.18850405  0.72121046    -0.23300
F2356       F  0.04041447  0.16966983  0.78794828    -0.20600
F2357       F  0.08236489  0.22182563  0.77928978    -0.20300
F2358       F  0.93211917  0.22514243  0.72471065    -0.20400
F2359       F  0.97459859  0.26608192  0.68701626    -0.20700
F2360       F  0.96837164  0.27149105  0.75915372    -0.23400
C2361       C  0.90020421  0.09059196  0.44399745    -0.06200
C2362       C  0.91516684  0.09214179  0.48481605    -0.00300
C2363       C  0.91353282  0.06287374  0.50126433    -0.08800
C2364       C  0.89222766  0.03237087  0.48087791    -0.06200
C2365       C  0.87348205  0.03037374  0.44392744    -0.00300
C2366       C  0.87972426  0.05995916  0.42291296    -0.08700
C2367       C  0.86377088  0.05846943  0.37884083     0.61600
H2368       H  0.90291628  0.11314283  0.43015553     0.12300
H2369       H  0.88758889  0.00958750  0.49636596     0.12300
C2370       C  0.93405681  0.06365896  0.54032071     0.61900
F2371       F  0.87582269  0.08950646  0.36068448    -0.23300
F2372       F  0.83008644  0.04433038  0.38394179    -0.20600
F2373       F  0.87029501  0.03956341  0.34952256    -0.20300
F2374       F  0.92373307  0.07227228  0.57846288    -0.20400
F2375       F  0.96673129  0.08626611  0.53224406    -0.20700
F2376       F  0.93172628  0.03331392  0.54727977    -0.23400
C2377       C  0.03676909  0.14972973  0.50701436    -0.06200
C2378       C  0.03576440  0.15952618  0.55056728    -0.00300
C2379       C  0.06535456  0.17554488  0.57464609    -0.08800
C2380       C  0.09543574  0.18349606  0.55359266    -0.06200
C2381       C  0.09710160  0.17719019  0.50827280    -0.00300
C2382       C  0.06667166  0.15834286  0.48499894    -0.08700
C2383       C  0.06485656  0.14842964  0.43653431     0.61600
H2384       H  0.01394931  0.13835218  0.48865369     0.12300
H2385       H  0.11809444  0.19650039  0.57202235     0.12300
C2386       C  0.06477648  0.18513308  0.62220844     0.61900
F2387       F  0.03284267  0.12730883  0.42317324    -0.23300
F2388       F  0.08235790  0.13218830  0.42972970    -0.20600
F2389       F  0.07739419  0.17612381  0.40998921    -0.20300
F2390       F  0.04205604  0.15754580  0.64522162    -0.20400
F2391       F  0.05580953  0.20918511  0.62447702    -0.20700
F2392       F  0.09519369  0.19720631  0.64200934    -0.23400
C2393       C  0.85532465  0.15330028  0.68740201    -0.06200
C2394       C  0.85628685  0.15777663  0.64128326    -0.00300
C2395       C  0.83120678  0.16270180  0.62220579    -0.08800
C2396       C  0.80631399  0.16249754  0.64970096    -0.06200
C2397       C  0.80523604  0.15778091  0.69575450    -0.00300
C2398       C  0.83063006  0.15344956  0.71494442    -0.08700
C2399       C  0.83258340  0.15013160  0.76471171     0.61600
H2400       H  0.87484212  0.15056195  0.70209848     0.12300
H2401       H  0.78682899  0.16531445  0.63505382     0.12300
C2402       C  0.83001857  0.16750421  0.57266434     0.61900
F2403       F  0.86256754  0.15363852  0.77709657    -0.23300
F2404       F  0.80819838  0.11941225  0.77854516    -0.20600
F2405       F  0.82891302  0.17429332  0.78630168    -0.20300
F2406       F  0.83397966  0.14399973  0.54975229    -0.20400
F2407       F  0.85466686  0.19862776  0.56062948    -0.20700
F2408       F  0.80027675  0.16448307  0.56005651    -0.23400
C2409       C  0.04432859  0.30025276  0.62336325    -0.06200
C2410       C  0.04059812  0.29125653  0.57808618    -0.00300
C2411       C  0.06099784  0.31527493  0.54693243    -0.08800
C2412       C  0.07768763  0.34857629  0.56056557    -0.06200
C2413       C  0.07486637  0.35799615  0.60423206    -0.00300
C2414       C  0.06080141  0.33342419  0.63705370    -0.08700
C2415       C  0.06049126  0.34198858  0.68546914     0.61600
H2416       H  0.03125683  0.28119043  0.64780529     0.12300
H2417       H  0.09043580  0.36774178  0.53609205     0.12300
C2418       C  0.06439451  0.30620866  0.49976276     0.61900
F2419       F  0.04760384  0.31428910  0.71213578    -0.23300
F2420       F  0.04157822  0.35691115  0.69123380    -0.20600
F2421       F  0.09230645  0.36322783  0.69922857    -0.20300
F2422       F  0.03515273  0.29522827  0.47735872    -0.20400
F2423       F  0.07266598  0.28161794  0.50001786    -0.20700
F2424       F  0.08889013  0.33289684  0.47711633    -0.23400
C2425       C  0.89078643  0.29402271  0.09155016    -0.06200
C2426       C  0.89376220  0.31240859  0.12930533    -0.00300
C2427       C  0.90609947  0.34686084  0.12582488    -0.08800
C2428       C  0.91283577  0.36109401  0.08368488    -0.06200
C2429       C  0.90566615  0.34176054  0.04555914    -0.00300
C2430       C  0.89417601  0.30744688  0.04940726    -0.08700
C2431       C  0.88213356  0.28272906  0.01196276     0.61600
H2432       H  0.88206103  0.26787493  0.09479153     0.12300
H2433       H  0.92174339  0.38731751  0.08046134     0.12300
C2434       C  0.91186084  0.36972969  0.16459425     0.61900
F2435       F  0.90013896  0.26666300  0.01067408    -0.23300
F2436       F  0.88367421  0.29650414  0.97119369    -0.20600
F2437       F  0.84985612  0.25942747  0.02063083    -0.20300
F2438       F  0.94389346  0.39568949  0.16316098    -0.20400
F2439       F  0.90703632  0.35440665  0.20500942    -0.20700
F2440       F  0.89069237  0.38221450  0.16133987    -0.23400
C2441       C  0.76680715  0.22530920  0.38483089    -0.06200
C2442       C  0.76512783  0.23391981  0.34076034    -0.00300
C2443       C  0.73366192  0.22392303  0.32220489    -0.08800
C2444       C  0.70523830  0.20447631  0.34775657    -0.06200
C2445       C  0.70694162  0.19236492  0.38935181    -0.00300
C2446       C  0.73812666  0.20362007  0.40884806    -0.08700
C2447       C  0.74094018  0.19036250  0.45328040     0.61600
H2448       H  0.79079998  0.23312406  0.39885744     0.12300
H2449       H  0.68119132  0.19478599  0.33284701     0.12300
C2450       C  0.72945361  0.23148764  0.27463538     0.61900
F2451       F  0.71906931  0.19168797  0.48308555    -0.23300
F2452       F  0.77232202  0.20851247  0.47045644    -0.20600
F2453       F  0.73366116  0.15797727  0.44864455    -0.20300
F2454       F  0.73647184  0.21257465  0.24607867    -0.20400
F2455       F  0.75022778  0.26439217  0.26568718    -0.20700
F2456       F  0.69761646  0.22462571  0.26637537    -0.23400
C2457       C  0.82943230  0.39959108  0.31953302    -0.06200
C2458       C  0.86082721  0.42707653  0.31305241    -0.00300
C2459       C  0.88302008  0.42459576  0.28368498    -0.08800
C2460       C  0.87385508  0.39399516  0.26383812    -0.06200
C2461       C  0.84375905  0.36541213  0.27345268    -0.00300
C2462       C  0.82047274  0.36861065  0.30021556    -0.08700
C2463       C  0.78698034  0.33925992  0.30987378     0.61600
H2464       H  0.81268900  0.40215012  0.34194929     0.12300
H2465       H  0.89186851  0.39141938  0.24448616     0.12300
C2466       C  0.91703865  0.45378240  0.27550258     0.61900
F2467       F  0.79030091  0.31498916  0.33110456    -0.23300
F2468       F  0.77052449  0.32716973  0.27042317    -0.20600
F2469       F  0.76809406  0.34758129  0.33665293    -0.20300
F2470       F  0.93391562  0.46442495  0.31503059    -0.20400
F2471       F  0.91398066  0.47902658  0.25693964    -0.20700
F2472       F  0.93545158  0.44606301  0.24688908    -0.23400
C2473       C  0.91270645  0.26686345  0.41545624    -0.06200
C2474       C  0.90062696  0.24463106  0.37983382    -0.00300
C2475       C  0.89965552  0.21409597  0.38227042    -0.08800
C2476       C  0.91045966  0.20653646  0.42131955    -0.06200
C2477       C  0.92347152  0.22911668  0.45676213    -0.00300
C2478       C  0.92506180  0.26012823  0.45368315    -0.08700
C2479       C  0.94116206  0.28676083  0.48892015     0.61600
H2480       H  0.91333585  0.29025196  0.41236153     0.12300
H2481       H  0.90952780  0.18299264  0.42398746     0.12300
C2482       C  0.88727101  0.18971025  0.34407610     0.61900
F2483       F  0.94266080  0.31595566  0.47649104    -0.23300
F2484       F  0.97302684  0.29341686  0.49605284    -0.20600
F2485       F  0.92339489  0.27652707  0.52799352    -0.20300
F2486       F  0.90848686  0.20274633  0.30837264    -0.20400
F2487       F  0.85620017  0.18317543  0.33184048    -0.20700
F2488       F  0.88539787  0.16013404  0.35519006    -0.23400
C2489       C  0.97727152  0.36268897  0.21931694    -0.06200
C2490       C  0.96791361  0.35676141  0.26444258    -0.00300
C2491       C  0.99207086  0.37328086  0.29709089    -0.08800
C2492       C  0.02524209  0.39129369  0.28334658    -0.06200
C2493       C  0.03469026  0.39198224  0.23858665    -0.00300
C2494       C  0.01029412  0.38008782  0.20569216    -0.08700
C2495       C  0.01883828  0.38352242  0.15672408     0.61600
H2496       H  0.95857295  0.35063812  0.19434427     0.12300
H2497       H  0.04438636  0.40242854  0.30801702     0.12300
C2498       C  0.98332052  0.36984721  0.34594782     0.61900
F2499       F  0.99113992  0.37194788  0.13048239    -0.23300
F2500       F  0.03443354  0.36583534  0.14620321    -0.20600
F2501       F  0.03935654  0.41644164  0.14670791    -0.20300
F2502       F  0.96973765  0.33723863  0.35863807    -0.20400
F2503       F  0.96089632  0.38039675  0.35376952    -0.20700
F2504       F  0.01063127  0.38854716  0.37202417    -0.23400
C2505       C  0.84514750  0.16229844  0.20294408    -0.06200
C2506       C  0.83168667  0.18081654  0.18466948    -0.00300
C2507       C  0.81917515  0.17269032  0.14081462    -0.08800
C2508       C  0.82115694  0.14715912  0.11748560    -0.06200
C2509       C  0.83486007  0.12886986  0.13586713    -0.00300
C2510       C  0.84685152  0.13669884  0.17990509    -0.08700
C2511       C  0.86008254  0.11728686  0.20382448     0.61600
H2512       H  0.85456236  0.16802382  0.23632356     0.12300
H2513       H  0.81134604  0.14084257  0.08430961     0.12300
C2514       C  0.80347058  0.19041230  0.11845187     0.61900
F2515       F  0.86993714  0.12855890  0.24656281    -0.23300
F2516       F  0.88703770  0.11984114  0.18128120    -0.20600
F2517       F  0.83574929  0.08465161  0.20652102    -0.20300
F2518       F  0.79237889  0.17827628  0.07635686    -0.20400
F2519       F  0.82604935  0.22355673  0.11455960    -0.20700
F2520       F  0.77682835  0.18645891  0.14325186    -0.23400
loop_ 
_geom_bond_atom_site_label_1 
_geom_bond_atom_site_label_2 
_geom_bond_distance 
_geom_bond_site_symmetry_2 
_ccdc_geom_bond_type 
O1           C16   1.248       .  A
O1           Al9   1.825       .  S
C2           O12   1.268       .  A
C2            O3   1.280       .  A
C2         C2442   1.495       .  S
O3           Al5   1.969       .  S
O4            C6   1.250       .  A
O4           Al5   1.853       .  S
Al5          O13   1.844       .  S
Al5          O15   1.972       .  S
Al5          O14   1.765       .  S
C6           O19   1.261       .  A
C6         C2474   1.464       .  S
O7           C17   1.255       .  A
O7           Al9   1.874       .  S
O8           C21   1.260       .  A
O8          Al18   1.873       .  S
Al9          O22   1.932       .  S
Al9          O19   1.917       .  S
Al9          O14   1.772       .  S
O10          C17   1.281       .  A
O10         Al18   2.025       .  S
O11          C20   1.272       .  A
O11         Al18   2.001       .  S
O12         Al18   1.891       .  S
O13          C20   1.246       .  A
O14         Al18   1.782       .  S
O15          C16   1.273       .  A
C16        C2490   1.488       .  S
C17        C2506   1.527       .  S
C20        C2461   1.491       .  S
C21          O22   1.270       .  A
C21        C2426   1.460       .  S
O23          C38   1.248   1_655  A
O23         Al31   1.839       .  S
C24          O34   1.271       .  A
C24          O25   1.279       .  A
C24        C2362   1.500       .  S
O25         Al27   1.986       .  S
O26          C28   1.254       .  A
O26         Al27   1.854       .  S
Al27         O35   1.850   1_655  S
Al27         O37   1.972   1_655  S
Al27         O36   1.769       .  S
C28          O41   1.264       .  A
C28        C2477   1.476       .  S
O29          C39   1.253       .  A
O29         Al31   1.880       .  S
O30          C43   1.262       .  A
O30         Al40   1.871       .  S
Al31         O44   1.936       .  S
Al31         O41   1.925       .  S
Al31         O36   1.771       .  S
O32          C39   1.283       .  A
O32         Al40   2.024       .  S
O33          C42   1.275   1_655  A
O33         Al40   2.002       .  S
O34         Al40   1.905       .  S
O35          C42   1.245       .  A
O36         Al40   1.774       .  S
O37          C38   1.271       .  A
C38        C2410   1.496       .  S
C39        C2394   1.520       .  S
C42        C2378   1.483       .  S
C43          O44   1.267       .  A
C43        C2346   1.491       .  S
O45          C60   1.246       .  A
O45         Al53   1.805       .  S
C46          O56   1.275       .  A
C46          O47   1.282       .  A
C46        C2266   1.490       .  S
O47         Al49   1.974       .  S
O48          C50   1.257       .  A
O48         Al49   1.885       .  S
Al49         O57   1.879       .  S
Al49         O59   1.958       .  S
Al49         O58   1.769       .  S
C50          O63   1.255       .  A
C50        C2314   1.492       .  S
O51          C61   1.247       .  A
O51         Al53   1.867       .  S
O52          C65   1.265   1_556  A
O52         Al62   1.885       .  S
Al53         O66   1.943       .  S
Al53         O63   1.891       .  S
Al53         O58   1.766       .  S
O54          C61   1.277       .  A
O54         Al62   2.024       .  S
O55          C64   1.268       .  A
O55         Al62   1.982       .  S
O56         Al62   1.899       .  S
O57          C64   1.247       .  A
O58         Al62   1.790       .  S
O59          C60   1.268       .  A
C60        C2298   1.491       .  S
C61        C2330   1.514       .  S
C64        C2285   1.488       .  S
C65          O66   1.273   1_554  A
C65        C2429   1.461       .  S
O67          C82   1.251       .  A
O67         Al75   1.847       .  S
C68          O78   1.260       .  A
C68          O69   1.277       .  A
C68        C2218   1.498       .  S
O69         Al71   1.979       .  S
O70          C72   1.256       .  A
O70         Al71   1.865       .  S
Al71         O79   1.853       .  S
Al71         O81   1.976       .  S
Al71         O80   1.766       .  S
C72          O85   1.267       .  A
C72        C2317   1.487       .  S
O73          C83   1.256       .  A
O73         Al75   1.873       .  S
O74          C87   1.252       .  A
O74         Al84   1.848       .  S
Al75         O88   1.946       .  S
Al75         O85   1.944       .  S
Al75         O80   1.773       .  S
O76          C83   1.281       .  A
O76         Al84   2.011       .  S
O77          C86   1.277       .  A
O77         Al84   2.003       .  S
O78         Al84   1.879       .  S
O79          C86   1.250       .  A
O80         Al84   1.764       .  S
O81          C82   1.275       .  A
C82        C2413   1.487       .  S
C83        C2250   1.515       .  S
C86        C2237   1.495       .  S
C87          O88   1.268       .  A
C87        C2205   1.467       .  S
O89         C104   1.249   1_455  A
O89         Al97   1.850       .  S
C90         O100   1.264       .  A
C90          O91   1.274       .  A
C90        C2138   1.499   1_556  S
O91         Al93   1.965       .  S
O92          C94   1.257       .  A
O92         Al93   1.867   1_554  S
Al93        O101   1.856   1_455  S
Al93        O103   1.957       .  S
Al93        O102   1.767       .  S
C94         O107   1.268   1_554  A
C94        C2170   1.475       .  S
O95         C105   1.253       .  A
O95         Al97   1.863       .  S
O96         C109   1.256       .  A
O96        Al106   1.862       .  S
Al97        O110   1.938       .  S
Al97        O107   1.939       .  S
Al97        O102   1.768       .  S
O98         C105   1.282       .  A
O98        Al106   2.014       .  S
O99         C108   1.278   1_455  A
O99        Al106   1.997       .  S
O100       Al106   1.896       .  S
O101        C108   1.251       .  A
O102       Al106   1.766       .  S
O103        C104   1.270   1_455  A
C104       C2301   1.468       .  S
C105       C2186   1.510       .  S
C108       C2154   1.485       .  S
C109        O110   1.266       .  A
C109       C2349   1.466       .  S
O111        C126   1.248       .  A
O111       Al119   1.842       .  S
C112        O122   1.267       .  A
C112        O113   1.277       .  A
C112       C2093   1.490       .  S
O113       Al115   1.975       .  S
O114        C116   1.257       .  A
O114       Al115   1.872       .  S
Al115       O123   1.869       .  S
Al115       O125   1.960       .  S
Al115       O124   1.768       .  S
C116        O129   1.264       .  A
C116       C2173   1.492       .  S
O117        C127   1.254       .  A
O117       Al119   1.873       .  S
O118        C131   1.260       .  A
O118       Al128   1.850       .  S
Al119       O132   1.940       .  S
Al119       O129   1.926       .  S
Al119       O124   1.771       .  S
O120        C127   1.282       .  A
O120       Al128   2.024       .  S
O121        C130   1.278       .  A
O121       Al128   2.006       .  S
O122       Al128   1.893       .  S
O123        C130   1.248       .  A
O124       Al128   1.770       .  S
O125        C126   1.270       .  A
C126       C2493   1.485       .  S
C127       C2125   1.525       .  S
C130       C2106   1.493       .  S
C131        O132   1.266       .  A
C131       C2202   1.486       .  S
O133        C148   1.264       .  A
O133       Al141   1.924       .  S
C134        O144   1.278       .  A
C134        O135   1.266       .  A
C134       C2026   1.496       .  S
O135       Al137   1.892       .  S
O136        C138   1.279       .  A
O136       Al137   2.004       .  S
Al137       O145   1.989       .  S
Al137       O147   1.859       .  S
Al137       O146   1.774       .  S
C138        O151   1.258       .  A
C138       C2074   1.522       .  S
O139        C149   1.264       .  A
O139       Al141   1.926       .  S
O140        C153   1.271       .  A
O140       Al150   1.969       .  S
Al141       O154   1.849       .  S
Al141       O151   1.882       .  S
Al141       O146   1.772       .  S
O142        C149   1.256       .  A
O142       Al150   1.865       .  S
O143        C152   1.247       .  A
O143       Al150   1.858       .  S
O144       Al150   1.978       .  S
O145        C152   1.272       .  A
O146       Al150   1.768       .  S
O147        C148   1.260       .  A
C148       C2010   1.481       .  S
C149       C2061   1.480       .  S
C152       C2221   1.480       .  S
C153        O154   1.250       .  A
C153       C2042   1.493       .  S
O155        C170   1.269       .  A
O155       Al163   1.933       .  S
C156        O166   1.276       .  A
C156        O157   1.271       .  A
C156       C1949   1.488       .  S
O157       Al159   1.901       .  S
O158        C160   1.276       .  A
O158       Al159   2.008       .  S
Al159       O167   1.995       .  S
Al159       O169   1.881       .  S
Al159       O168   1.788       .  S
C160        O173   1.256       .  A
C160       C1978   1.520       .  S
O161        C171   1.263       .  A
O161       Al163   1.927       .  S
O162        C175   1.265       .  A
O162       Al172   1.940       .  S
Al163       O176   1.847       .  S
Al163       O173   1.885       .  S
Al163       O168   1.777       .  S
O164        C171   1.251       .  A
O164       Al172   1.854       .  S
O165        C174   1.245       .  A
O165       Al172   1.857   1_655  S
O166       Al172   1.957       .  S
O167        C174   1.271   1_455  A
O168       Al172   1.771       .  S
O169        C170   1.263       .  A
C170       C1933   1.460       .  S
C171       C2058   1.473       .  S
C174       C1965   1.490       .  S
C175        O176   1.251       .  A
C175       C1994   1.486   1_455  S
O177        C192   1.268       .  A
O177       Al185   1.942       .  S
C178        O188   1.276       .  A
C178        O179   1.264       .  A
C178       C1882   1.492       .  S
O179       Al181   1.888       .  S
O180        C182   1.285       .  A
O180       Al181   2.026       .  S
Al181       O189   2.001       .  S
Al181       O191   1.856       .  S
Al181       O190   1.771       .  S
C182        O195   1.251       .  A
C182       C1898   1.521       .  S
O183        C193   1.267       .  A
O183       Al185   1.942       .  S
O184        C197   1.274       .  A
O184       Al194   1.980       .  S
Al185       O198   1.848       .  S
Al185       O195   1.865       .  S
Al185       O190   1.767       .  S
O186        C193   1.254       .  A
O186       Al194   1.857       .  S
O187        C196   1.247       .  A
O187       Al194   1.840       .  S
O188       Al194   1.977       .  S
O189        C196   1.277       .  A
O190       Al194   1.765       .  S
O191        C192   1.253       .  A
C192       C1866   1.469       .  S
C193       C1917   1.484       .  S
C196       C2269   1.482       .  S
C197        O198   1.251       .  A
C197       C2045   1.493       .  S
O199        C214   1.261       .  A
O199       Al207   1.900       .  S
C200        O210   1.278       .  A
C200        O201   1.268       .  A
C200       C1805   1.519   1_554  S
O201       Al203   1.925       .  S
O202        C204   1.278       .  A
O202       Al203   1.989       .  S
Al203       O211   1.985       .  S
Al203       O213   1.882       .  S
Al203       O212   1.777       .  S
C204        O217   1.250       .  A
C204       C1834   1.522       .  S
O205        C215   1.263   1_554  A
O205       Al207   1.911       .  S
O206        C219   1.273       .  A
O206       Al216   1.967   1_455  S
Al207       O220   1.881       .  S
Al207       O217   1.850       .  S
Al207       O212   1.785       .  S
O208        C215   1.255       .  A
O208       Al216   1.871   1_556  S
O209        C218   1.242   1_655  A
O209       Al216   1.858       .  S
O210       Al216   1.945       .  S
O211        C218   1.269   1_655  A
O212       Al216   1.787       .  S
O213        C214   1.256       .  A
C214       C1930   1.462       .  S
C215       C1914   1.482       .  S
C218       C1821   1.489       .  S
C219        O220   1.255   1_455  A
C219       C1853   1.488       .  S
O221        C236   1.261       .  A
O221       Al229   1.920       .  S
C222        O232   1.276       .  A
C222        O223   1.262       .  A
C222       C2109   1.503       .  S
O223       Al225   1.895       .  S
O224        C226   1.285       .  A
O224       Al225   2.024       .  S
Al225       O233   2.011       .  S
Al225       O235   1.865       .  S
Al225       O234   1.769       .  S
C226        O239   1.256       .  A
C226       C2333   1.519       .  S
O227        C237   1.262       .  A
O227       Al229   1.925       .  S
O228        C241   1.280       .  A
O228       Al238   1.997       .  S
Al229       O242   1.855       .  S
Al229       O239   1.868       .  S
Al229       O234   1.774       .  S
O230        C237   1.253       .  A
O230       Al238   1.861       .  S
O231        C240   1.249       .  A
O231       Al238   1.836       .  S
O232       Al238   1.981       .  S
O233        C240   1.279       .  A
O234       Al238   1.769       .  S
O235        C236   1.255       .  A
C236       C2013   1.460   1_554  S
C237       C1789   1.474       .  S
C240       C1770   1.497       .  S
C241        O242   1.253       .  A
C241       C1850   1.496       .  S
O243        C258   1.263       .  A
O243       Al251   1.927       .  S
C244        O254   1.273       .  A
C244        O245   1.266       .  A
C244       C2458   1.482       .  S
O245       Al247   1.892       .  S
O246        C248   1.281       .  A
O246       Al247   2.012       .  S
Al247       O255   1.992       .  S
Al247       O257   1.870       .  S
Al247       O256   1.769       .  S
C248        O261   1.256       .  A
C248       C2253   1.516       .  S
O249        C259   1.262       .  A
O249       Al251   1.922       .  S
O250        C263   1.270       .  A
O250       Al260   1.962       .  S
Al251       O264   1.846       .  S
Al251       O261   1.872       .  S
Al251       O256   1.764       .  S
O252        C259   1.256       .  A
O252       Al260   1.859       .  S
O253        C262   1.251       .  A
O253       Al260   1.861       .  S
O254       Al260   1.960       .  S
O255        C262   1.276       .  A
O256       Al260   1.764       .  S
O257        C258   1.262       .  A
C258       C1869   1.485       .  S
C259       C1786   1.481       .  S
C262       C1754   1.481       .  S
C263        O264   1.251       .  A
C263       C1997   1.480       .  S
O265        C280   1.250       .  A
O265       Al273   1.868       .  S
C266        O276   1.259       .  A
C266        O267   1.271       .  A
C266       C1757   1.497       .  S
O267       Al269   1.961       .  S
O268        C270   1.258       .  A
O268       Al269   1.871       .  S
Al269       O277   1.859       .  S
Al269       O279   1.969       .  S
Al269       O278   1.777       .  S
C270        O283   1.271       .  A
C270       C1725   1.473       .  S
O271        C281   1.257       .  A
O271       Al273   1.863       .  S
O272        C285   1.253       .  A
O272       Al282   1.871       .  S
Al273       O286   1.920       .  S
Al273       O283   1.956       .  S
Al273       O278   1.769       .  S
O274        C281   1.284       .  A
O274       Al282   2.005       .  S
O275        C284   1.280       .  A
O275       Al282   2.000       .  S
O276       Al282   1.889       .  S
O277        C284   1.254       .  A
O278       Al282   1.767       .  S
O279        C280   1.272       .  A
C280       C1738   1.466       .  S
C281       C1837   1.506       .  S
C284       C1706   1.491       .  S
C285        O286   1.261       .  A
C285       C1690   1.461       .  S
O287        C302   1.248       .  A
O287       Al295   1.826       .  S
C288        O298   1.268       .  A
C288        O289   1.277       .  A
C288       C1962   1.493       .  S
O289       Al291   1.969       .  S
O290        C292   1.255       .  A
O290       Al291   1.872       .  S
Al291       O299   1.856       .  S
Al291       O301   1.970       .  S
Al291       O300   1.771       .  S
C292        O305   1.265       .  A
C292       C1722   1.494       .  S
O293        C303   1.250       .  A
O293       Al295   1.873       .  S
O294        C307   1.258       .  A
O294       Al304   1.879       .  S
Al295       O308   1.953       .  S
Al295       O305   1.937       .  S
Al295       O300   1.772       .  S
O296        C303   1.282       .  A
O296       Al304   2.017       .  S
O297        C306   1.272       .  A
O297       Al304   1.988       .  S
O298       Al304   1.895       .  S
O299        C306   1.248       .  A
O300       Al304   1.783       .  S
O301        C302   1.272       .  A
C302       C1674   1.493       .  S
C303       C1901   1.520       .  S
C306       C1658   1.486       .  S
C307        O308   1.272       .  A
C307       C1642   1.474       .  S
O309        C324   1.252       .  A
O309       Al317   1.854       .  S
C310        O320   1.265       .  A
C310        O311   1.276       .  A
C310       C1578   1.492   1_556  S
O311       Al313   1.979       .  S
O312        C314   1.253       .  A
O312       Al313   1.856   1_554  S
Al313       O321   1.859       .  S
Al313       O323   1.965       .  S
Al313       O322   1.770       .  S
C314        O327   1.271   1_554  A
C314       C1610   1.472       .  S
O315        C325   1.254       .  A
O315       Al317   1.872       .  S
O316        C329   1.260       .  A
O316       Al326   1.870       .  S
Al317       O330   1.964       .  S
Al317       O327   1.957       .  S
Al317       O322   1.768       .  S
O318        C325   1.282       .  A
O318       Al326   2.020       .  S
O319        C328   1.279       .  A
O319       Al326   2.012       .  S
O320       Al326   1.893       .  S
O321        C328   1.247       .  A
O322       Al326   1.775       .  S
O323        C324   1.271       .  A
C324       C1594   1.487       .  S
C325       C1626   1.514       .  S
C328       C1802   1.491       .  S
C329        O330   1.273       .  A
C329       C1645   1.483       .  S
O331        C346   1.241       .  A
O331       Al339   1.819       .  S
C332        O342   1.264       .  A
C332        O333   1.286       .  A
C332       C1549   1.496       .  S
O333       Al335   2.008       .  S
O334        C336   1.252       .  A
O334       Al335   1.865       .  S
Al335       O343   1.865       .  S
Al335       O345   1.999       .  S
Al335       O344   1.758       .  S
C336        O349   1.268       .  A
C336       C1613   1.482       .  S
O337        C347   1.250       .  A
O337       Al339   1.870       .  S
O338        C351   1.259       .  A
O338       Al348   1.862       .  S
Al339       O352   1.960       .  S
Al339       O349   1.953       .  S
Al339       O344   1.762       .  S
O340        C347   1.282       .  A
O340       Al348   2.021       .  S
O341        C350   1.277       .  A
O341       Al348   2.011       .  S
O342       Al348   1.876       .  S
O343        C350   1.247       .  A
O344       Al348   1.776       .  S
O345        C346   1.280       .  A
C346       C1741   1.493       .  S
C347       C1562   1.504       .  S
C350       C1530   1.495       .  S
C351        O352   1.275       .  A
C351       C1514   1.466       .  S
O353        C368   1.248       .  A
O353       Al361   1.842       .  S
C354        O364   1.268       .  A
C354        O355   1.272       .  A
C354       C1450   1.490       .  S
O355       Al357   1.953       .  S
O356        C358   1.253       .  A
O356       Al357   1.855       .  S
Al357       O365   1.848       .  S
Al357       O367   1.958       .  S
Al357       O366   1.768       .  S
C358        O371   1.266       .  A
C358       C1498   1.471       .  S
O359        C369   1.255       .  A
O359       Al361   1.867       .  S
O360        C373   1.259       .  A
O360       Al370   1.868       .  S
Al361       O374   1.931       .  S
Al361       O371   1.938       .  S
Al361       O366   1.771       .  S
O362        C369   1.283       .  A
O362       Al370   2.017       .  S
O363        C372   1.277       .  A
O363       Al370   1.999       .  S
O364       Al370   1.906       .  S
O365        C372   1.249       .  A
O366       Al370   1.772       .  S
O367        C368   1.270       .  A
C368       C1677   1.478       .  S
C369       C1482   1.521       .  S
C372       C1469   1.489       .  S
C373        O374   1.264       .  A
C373       C1517   1.489       .  S
O375        C390   1.250       .  A
O375       Al383   1.848       .  S
C376        O386   1.265       .  A
C376        O377   1.274       .  A
C376       C1418   1.485       .  S
O377       Al379   1.961       .  S
O378        C380   1.253       .  A
O378       Al379   1.854       .  S
Al379       O387   1.847       .  S
Al379       O389   1.968       .  S
Al379       O388   1.769       .  S
C380        O393   1.264       .  A
C380       C1501   1.489       .  S
O381        C391   1.255       .  A
O381       Al383   1.872       .  S
O382        C395   1.261       .  A
O382       Al392   1.874       .  S
Al383       O396   1.927       .  S
Al383       O393   1.933       .  S
Al383       O388   1.771       .  S
O384        C391   1.280       .  A
O384       Al392   2.009       .  S
O385        C394   1.275       .  A
O385       Al392   1.997       .  S
O386       Al392   1.888       .  S
O387        C394   1.249       .  A
O388       Al392   1.779       .  S
O389        C390   1.273       .  A
C390       C1597   1.483       .  S
C391       C1434   1.509       .  S
C394       C1885   1.485       .  S
C395        O396   1.265       .  A
C395       C1693   1.478   1_556  S
O397        C412   1.273       .  A
O397       Al405   1.942       .  S
C398        O408   1.286       .  A
C398        O399   1.268       .  A
C398       C1709   1.490       .  S
O399       Al401   1.877       .  S
O400        C402   1.274       .  A
O400       Al401   2.002       .  S
Al401       O409   2.002       .  S
Al401       O411   1.867       .  S
Al401       O410   1.790       .  S
C402        O415   1.251       .  A
C402       C1485   1.520       .  S
O403        C413   1.262       .  A
O403       Al405   1.925       .  S
O404        C417   1.273       .  A
O404       Al414   1.978       .  S
Al405       O418   1.839       .  S
Al405       O415   1.877       .  S
Al405       O410   1.770       .  S
O406        C413   1.251       .  A
O406       Al414   1.857       .  S
O407        C416   1.242       .  A
O407       Al414   1.856       .  S
O408       Al414   1.991       .  S
O409        C416   1.270       .  A
O410       Al414   1.764       .  S
O411        C412   1.267       .  A
C412       C1357   1.485       .  S
C413       C1389   1.490       .  S
C416       C1370   1.492       .  S
C417        O418   1.249       .  A
C417       C1402   1.513       .  S
O419        C434   1.267   1_554  A
O419       Al427   1.943       .  S
C420        O430   1.275       .  A
C420        O421   1.265       .  A
C420       C1533   1.504       .  S
O421       Al423   1.904       .  S
O422        C424   1.282       .  A
O422       Al423   2.011       .  S
Al423       O431   1.989       .  S
Al423       O433   1.878       .  S
Al423       O432   1.773       .  S
C424        O437   1.256       .  A
C424       C1437   1.509       .  S
O425        C435   1.267       .  A
O425       Al427   1.948       .  S
O426        C439   1.274       .  A
O426       Al436   1.979       .  S
Al427       O440   1.836       .  S
Al427       O437   1.869       .  S
Al427       O432   1.773       .  S
O428        C435   1.254       .  A
O428       Al436   1.858       .  S
O429        C438   1.248       .  A
O429       Al436   1.843       .  S
O430       Al436   1.974       .  S
O431        C438   1.275       .  A
O432       Al436   1.771       .  S
O433        C434   1.256   1_554  A
C434       C1322   1.467       .  S
C435       C1386   1.494       .  S
C438       C2090   1.482       .  S
C439        O440   1.250       .  A
C439       C1338   1.490       .  S
O441        C456   1.262       .  A
O441       Al449   1.909       .  S
C442        O452   1.271       .  A
C442        O443   1.258       .  A
C442       C2381   1.512       .  S
O443       Al445   1.896       .  S
O444        C446   1.276       .  A
O444       Al445   1.981       .  S
Al445       O453   1.962       .  S
Al445       O455   1.868       .  S
Al445       O454   1.788       .  S
C446        O459   1.252       .  A
C446       C2122   1.522       .  S
O447        C457   1.265       .  A
O447       Al449   1.904       .  S
O448        C461   1.265       .  A
O448       Al458   1.958       .  S
Al449       O462   1.866       .  S
Al449       O459   1.872       .  S
Al449       O454   1.793       .  S
O450        C457   1.257       .  A
O450       Al458   1.886       .  S
O451        C460   1.247       .  A
O451       Al458   1.849       .  S
O452       Al458   1.939       .  S
O453        C460   1.268       .  A
O454       Al458   1.798       .  S
O455        C456   1.257       .  A
C456       C1277   1.464       .  S
C457       C1309   1.473       .  S
C460       C1290   1.480       .  S
C461        O462   1.250       .  A
C461       C1405   1.484       .  S
O463        C478   1.270       .  A
O463       Al471   1.946       .  S
C464        O474   1.279       .  A
C464        O465   1.268       .  A
C464       C2234   1.491       .  S
O465       Al467   1.892       .  S
O466        C468   1.280       .  A
O466       Al467   2.015       .  S
Al467       O475   2.003       .  S
Al467       O477   1.879       .  S
Al467       O476   1.781       .  S
C468        O481   1.252       .  A
C468       C2189   1.511       .  S
O469        C479   1.265       .  A
O469       Al471   1.934       .  S
O470        C483   1.272       .  A
O470       Al480   1.967       .  S
Al471       O484   1.833       .  S
Al471       O481   1.869       .  S
Al471       O476   1.770       .  S
O472        C479   1.248       .  A
O472       Al480   1.853       .  S
O473        C482   1.243       .  A
O473       Al480   1.841       .  S
O474       Al480   1.978       .  S
O475        C482   1.274       .  A
O476       Al480   1.764       .  S
O477        C478   1.263       .  A
C478       C1325   1.472       .  S
C479       C1306   1.477       .  S
C482       C1453   1.490       .  S
C483        O484   1.249       .  A
C483       C1261   1.495       .  S
O485        C500   1.268       .  A
O485       Al493   1.918       .  S
C486        O496   1.280       .  A
C486        O487   1.270       .  A
C486       C1213   1.489   1_554  S
O487       Al489   1.895       .  S
O488        C490   1.278       .  A
O488       Al489   2.006       .  S
Al489       O497   2.005       .  S
Al489       O499   1.896       .  S
Al489       O498   1.780       .  S
C490        O503   1.261       .  A
C490       C1242   1.524       .  S
O491        C501   1.268   1_554  A
O491       Al493   1.928       .  S
O492        C505   1.269       .  A
O492       Al502   1.955       .  S
Al493       O506   1.845       .  S
Al493       O503   1.897       .  S
Al493       O498   1.771       .  S
O494        C501   1.249       .  A
O494       Al502   1.856   1_556  S
O495        C504   1.245       .  A
O495       Al502   1.867       .  S
O496       Al502   1.981       .  S
O497        C504   1.273       .  A
O498       Al502   1.768       .  S
O499        C500   1.267       .  A
C500       C1274   1.462       .  S
C501       C1229   1.486       .  S
C504       C2141   1.489       .  S
C505        O506   1.249       .  A
C505       C1341   1.486       .  S
O507        C522   1.264       .  A
O507       Al515   1.924       .  S
C508        O518   1.270       .  A
C508        O509   1.263       .  A
C508       C1178   1.490       .  S
O509       Al511   1.904       .  S
O510        C512   1.277       .  A
O510       Al511   1.983       .  S
Al511       O519   1.985       .  S
Al511       O521   1.869       .  S
Al511       O520   1.773       .  S
C512        O525   1.261       .  A
C512       C1194   1.511       .  S
O513        C523   1.272       .  A
O513       Al515   1.946       .  S
O514        C527   1.267       .  A
O514       Al524   1.958       .  S
Al515       O528   1.867       .  S
Al515       O525   1.891       .  S
Al515       O520   1.776       .  S
O516        C523   1.251       .  A
O516       Al524   1.850       .  S
O517        C526   1.250       .  A
O517       Al524   1.845       .  S
O518       Al524   1.956       .  S
O519        C526   1.276       .  A
O520       Al524   1.778       .  S
O521        C522   1.256       .  A
C522       C1354   1.467       .  S
C523       C1226   1.478       .  S
C526       C1421   1.481       .  S
C527        O528   1.252       .  A
C527       C1258   1.481       .  S
O529        C544   1.272   1_554  A
O529       Al537   1.952       .  S
C530        O540   1.285       .  A
C530        O531   1.265       .  A
C530       C1117   1.498       .  S
O531       Al533   1.877       .  S
O532        C534   1.279       .  A
O532       Al533   2.018       .  S
Al533       O541   1.994       .  S
Al533       O543   1.855       .  S
Al533       O542   1.771       .  S
C534        O547   1.251       .  A
C534       C1162   1.504       .  S
O535        C545   1.268       .  A
O535       Al537   1.937       .  S
O536        C549   1.277       .  A
O536       Al546   2.002       .  S
Al537       O550   1.806       .  S
Al537       O547   1.865       .  S
Al537       O542   1.760       .  S
O538        C545   1.250       .  A
O538       Al546   1.859       .  S
O539        C548   1.249       .  A
O539       Al546   1.867       .  S
O540       Al546   2.003       .  S
O541        C548   1.274       .  A
O542       Al546   1.766       .  S
O543        C544   1.257   1_554  A
C544       C1101   1.455       .  S
C545       C1130   1.482       .  S
C548       C1546   1.490       .  S
C549        O550   1.238       .  A
C549       C1146   1.493       .  S
O551        C566   1.272       .  A
O551       Al559   1.955       .  S
C552        O562   1.279       .  A
C552        O553   1.270       .  A
C552       C1050   1.497       .  S
O553       Al555   1.895       .  S
O554        C556   1.276       .  A
O554       Al555   2.001       .  S
Al555       O563   1.991       .  S
Al555       O565   1.869       .  S
Al555       O564   1.775       .  S
C556        O569   1.255       .  A
C556       C1066   1.520       .  S
O557        C567   1.271       .  A
O557       Al559   1.947       .  S
O558        C571   1.266       .  A
O558       Al568   1.951       .  S
Al559       O572   1.840       .  S
Al559       O569   1.875       .  S
Al559       O564   1.765       .  S
O560        C567   1.249       .  A
O560       Al568   1.845       .  S
O561        C570   1.246       .  A
O561       Al568   1.859       .  S
O562       Al568   1.980       .  S
O563        C570   1.272       .  A
O564       Al568   1.765       .  S
O565        C566   1.264       .  A
C566       C1037   1.478       .  S
C567       C1133   1.474       .  S
C570       C2445   1.477       .  S
C571        O572   1.246       .  A
C571       C1082   1.465       .  S
O573        C588   1.268       .  A
O573       Al581   1.940       .  S
C574        O584   1.275   1_554  A
C574        O575   1.265       .  A
C574       C2157   1.494   1_554  S
O575       Al577   1.899       .  S
O576        C578   1.284       .  A
O576       Al577   2.014       .  S
Al577       O585   1.996       .  S
Al577       O587   1.864       .  S
Al577       O586   1.765       .  S
C578        O591   1.259       .  A
C578       C2509   1.522       .  S
O579        C589   1.276   1_554  A
O579       Al581   1.975       .  S
O580        C593   1.271       .  A
O580       Al590   1.971   1_565  S
Al581       O594   1.871   1_545  S
Al581       O591   1.882       .  S
Al581       O586   1.765       .  S
O582        C589   1.257       .  A
O582       Al590   1.870   1_556  S
O583        C592   1.252       .  A
O583       Al590   1.853   1_565  S
O584       Al590   1.973   1_556  S
O585        C592   1.278   1_545  A
O586       Al590   1.772       .  S
O587        C588   1.252       .  A
C588       C1002   1.483       .  S
C589       C1021   1.483       .  S
C592       C1581   1.482       .  S
C593        O594   1.247       .  A
C593       C1149   1.471       .  S
O595        C610   1.272       .  A
O595       Al603   1.957       .  S
C596        O606   1.277       .  A
C596        O597   1.259       .  A
C596       C2282   1.498       .  S
O597       Al599   1.876       .  S
O598        C600   1.284       .  A
O598       Al599   2.022       .  S
Al599       O607   2.015       .  S
Al599       O609   1.846       .  S
Al599       O608   1.769       .  S
C600        O613   1.255       .  A
C600       C2397   1.519       .  S
O601        C611   1.272       .  A
O601       Al603   1.954       .  S
O602        C615   1.274       .  A
O602       Al612   1.977       .  S
Al603       O616   1.843       .  S
Al603       O613   1.882       .  S
Al603       O608   1.774       .  S
O604        C611   1.253       .  A
O604       Al612   1.869       .  S
O605        C614   1.248       .  A
O605       Al612   1.855       .  S
O606       Al612   1.979       .  S
O607        C614   1.279       .  A
O608       Al612   1.776       .  S
O609        C610   1.249       .  A
C610       C1034   1.492       .  S
C611       C1018   1.497       .  S
C614        C973   1.499       .  S
C615        O616   1.250       .  A
C615        C986   1.483       .  S
O617        C632   1.262       .  A
O617       Al625   1.937       .  S
C618        O628   1.277       .  A
C618        O619   1.265       .  A
C618       C1661   1.490       .  S
O619       Al621   1.888       .  S
O620        C622   1.287       .  A
O620       Al621   2.023       .  S
Al621       O629   1.996       .  S
Al621       O631   1.883       .  S
Al621       O630   1.759       .  S
C622        O635   1.255       .  A
C622       C1565   1.500       .  S
O623        C633   1.271       .  A
O623       Al625   1.965       .  S
O624        C637   1.276   1_565  A
O624       Al634   2.013       .  S
Al625       O638   1.844       .  S
Al625       O635   1.863       .  S
Al625       O630   1.746       .  S
O626        C633   1.259       .  A
O626       Al634   1.870       .  S
O627        C636   1.254       .  A
O627       Al634   1.855   1_545  S
O628       Al634   1.974       .  S
O629        C636   1.279   1_565  A
O630       Al634   1.772       .  S
O631        C632   1.260       .  A
C632       C1005   1.494       .  S
C633        C957   1.494       .  S
C636       C2365   1.482       .  S
C637        O638   1.244   1_545  A
C637       C1085   1.480       .  S
O639        C654   1.268       .  A
O639       Al647   1.942       .  S
C640        O650   1.277       .  A
C640        O641   1.264       .  A
C640       C1466   1.492       .  S
O641       Al643   1.890       .  S
O642        C644   1.281       .  A
O642       Al643   2.015       .  S
Al643       O651   2.018       .  S
Al643       O653   1.869       .  S
Al643       O652   1.782       .  S
C644        O657   1.255       .  A
C644       C1629   1.516       .  S
O645        C655   1.268       .  A
O645       Al647   1.946       .  S
O646        C659   1.272       .  A
O646       Al656   1.970       .  S
Al647       O660   1.851       .  S
Al647       O657   1.873       .  S
Al647       O652   1.775       .  S
O648        C655   1.251       .  A
O648       Al656   1.854       .  S
O649        C658   1.246       .  A
O649       Al656   1.851       .  S
O650       Al656   1.975       .  S
O651        C658   1.278       .  A
O652       Al656   1.773       .  S
O653        C654   1.261       .  A
C654       C1098   1.478       .  S
C655        C954   1.476       .  S
C658        C938   1.499       .  S
C659        O660   1.250       .  A
C659        C989   1.491       .  S
O661        C676   1.249   1_565  A
O661       Al669   1.852       .  S
C662        O672   1.267   1_554  A
C662        O663   1.272       .  A
C662       C1818   1.497       .  S
O663       Al665   1.960   1_554  S
O664        C666   1.247       .  A
O664       Al665   1.845   1_554  S
Al665       O673   1.837   1_565  S
Al665       O675   1.976   1_565  S
Al665       O674   1.770       .  S
C666        O679   1.269   1_554  A
C666        C922   1.477       .  S
O667        C677   1.261       .  A
O667       Al669   1.889       .  S
O668        C681   1.262       .  A
O668       Al678   1.882       .  S
Al669       O682   1.927       .  S
Al669       O679   1.937       .  S
Al669       O674   1.771       .  S
O670        C677   1.280       .  A
O670       Al678   2.001       .  S
O671        C680   1.276       .  A
O671       Al678   1.997       .  S
O672       Al678   1.913       .  S
O673        C680   1.248   1_545  A
O674       Al678   1.768       .  S
O675        C676   1.272       .  A
C676        C906   1.487       .  S
C677       C2077   1.522       .  S
C680       C1210   1.482   1_565  S
C681        O682   1.264       .  A
C681        C890   1.489       .  S
O683        C698   1.250       .  A
O683       Al691   1.853       .  S
C684        O694   1.267       .  A
C684        O685   1.275       .  A
C684       C1773   1.491       .  S
O685       Al687   1.974       .  S
O686        C688   1.252       .  A
O686       Al687   1.852       .  S
Al687       O695   1.857       .  S
Al687       O697   1.960       .  S
Al687       O696   1.774       .  S
C688        O701   1.268       .  A
C688        C925   1.467       .  S
O689        C699   1.260       .  A
O689       Al691   1.895       .  S
O690        C703   1.262       .  A
O690       Al700   1.864       .  S
Al691       O704   1.920       .  S
Al691       O701   1.920       .  S
Al691       O696   1.771       .  S
O692        C699   1.277       .  A
O692       Al700   1.993       .  S
O693        C702   1.275       .  A
O693       Al700   1.992       .  S
O694       Al700   1.898       .  S
O695        C702   1.249       .  A
O696       Al700   1.769       .  S
O697        C698   1.268       .  A
C698        C874   1.484       .  S
C699       C1981   1.523       .  S
C702       C1114   1.480       .  S
C703        O704   1.263       .  A
C703        C858   1.480       .  S
O705        C720   1.252       .  A
O705       Al713   1.865       .  S
C706        O716   1.265       .  A
C706        O707   1.277       .  A
C706        C941   1.496       .  S
O707       Al709   1.980       .  S
O708        C710   1.254       .  A
O708       Al709   1.854       .  S
Al709       O717   1.853       .  S
Al709       O719   1.963       .  S
Al709       O718   1.767       .  S
C710        O723   1.268       .  A
C710        C842   1.464       .  S
O711        C721   1.258       .  A
O711       Al713   1.880       .  S
O712        C725   1.254       .  A
O712       Al722   1.862       .  S
Al713       O726   1.927       .  S
Al713       O723   1.938       .  S
Al713       O718   1.770       .  S
O714        C721   1.280       .  A
O714       Al722   2.007       .  S
O715        C724   1.277       .  A
O715       Al722   1.997       .  S
O716       Al722   1.895       .  S
O717        C724   1.248       .  A
O718       Al722   1.774       .  S
O719        C720   1.271       .  A
C720        C829   1.486       .  S
C721       C1069   1.520       .  S
C724       C2029   1.480       .  S
C725        O726   1.268       .  A
C725        C861   1.474       .  S
O727        C742   1.250       .  A
O727       Al735   1.829       .  S
C728        O738   1.264       .  A
C728        O729   1.279       .  A
C728        C970   1.499       .  S
O729       Al731   1.985       .  S
O730        C732   1.251       .  A
O730       Al731   1.854       .  S
Al731       O739   1.822       .  S
Al731       O741   1.988       .  S
Al731       O740   1.769       .  S
C732        O745   1.265       .  A
C732        C845   1.485       .  S
O733        C743   1.255       .  A
O733       Al735   1.867       .  S
O734        C747   1.259       .  A
O734       Al744   1.886       .  S
Al735       O748   1.953       .  S
Al735       O745   1.942       .  S
Al735       O740   1.773       .  S
O736        C743   1.283       .  A
O736       Al744   2.014       .  S
O737        C746   1.275       .  A
O737       Al744   2.001       .  S
O738       Al744   1.890       .  S
O739        C746   1.244       .  A
O740       Al744   1.778       .  S
O741        C742   1.277       .  A
C742        C909   1.500       .  S
C743       C1165   1.504       .  S
C746       C1181   1.489       .  S
C747        O748   1.269       .  A
C747        C810   1.475   1_556  S
O749        C764   1.255   1_545  A
O749       Al757   1.876       .  S
C750        O760   1.263       .  A
C750        O751   1.271       .  A
C750       C1293   1.483       .  S
O751       Al753   1.954       .  S
O752        C754   1.252       .  A
O752       Al753   1.852       .  S
Al753       O761   1.846   1_545  S
Al753       O763   1.950   1_545  S
Al753       O762   1.767       .  S
C754        O767   1.269       .  A
C754        C797   1.478       .  S
O755        C765   1.259       .  A
O755       Al757   1.882       .  S
O756        C769   1.258       .  A
O756       Al766   1.873       .  S
Al757       O770   1.937       .  S
Al757       O767   1.953       .  S
Al757       O762   1.774       .  S
O758        C765   1.279       .  A
O758       Al766   2.004       .  S
O759        C768   1.276   1_545  A
O759       Al766   2.003       .  S
O760       Al766   1.892       .  S
O761        C768   1.248       .  A
O762       Al766   1.779       .  S
O763        C764   1.270       .  A
C764        C826   1.490       .  S
C765       C1197   1.512       .  S
C768       C1946   1.490       .  S
C769        O770   1.270       .  A
C769        C893   1.483       .  S
O771        C786   1.251       .  A
O771       Al779   1.837       .  S
C772        O782   1.269       .  A
C772        O773   1.275       .  A
C772       C1373   1.494       .  S
O773       Al775   1.961       .  S
O774        C776   1.252       .  A
O774       Al775   1.859       .  S
Al775       O783   1.856       .  S
Al775       O785   1.958       .  S
Al775       O784   1.783       .  S
C776        O789   1.266       .  A
C776        C794   1.496       .  S
O777        C787   1.259       .  A
O777       Al779   1.893       .  S
O778        C791   1.264       .  A
O778       Al788   1.900       .  S
Al779       O792   1.945       .  S
Al779       O789   1.943       .  S
Al779       O784   1.780       .  S
O780        C787   1.278       .  A
O780       Al788   2.005       .  S
O781        C790   1.271       .  A
O781       Al788   1.993       .  S
O782       Al788   1.900       .  S
O783        C790   1.245       .  A
O784       Al788   1.785       .  S
O785        C786   1.268       .  A
C786        C877   1.488       .  S
C787       C1245   1.524       .  S
C790       C1053   1.489       .  S
C791        O792   1.270       .  A
C791        C813   1.480       .  S
C793        C794   1.415       .  A
C793        C798   1.407       .  A
C793        H800   1.077       .  S
C794        C795   1.419       .  A
C795        C796   1.406       .  A
C795        C802   1.520       .  S
C796        C797   1.406       .  A
C796        H801   1.083       .  S
C797        C798   1.408       .  A
C798        C799   1.519       .  S
C799        F803   1.383       .  S
C799        F804   1.383       .  S
C799        F805   1.383       .  S
C802        F806   1.384       .  S
C802        F807   1.383       .  S
C802        F808   1.385   1_545  S
C809        C810   1.402       .  A
C809        C814   1.407       .  A
C809        H816   1.083       .  S
C810        C811   1.413       .  A
C811        C812   1.410       .  A
C811        C818   1.517       .  S
C812        C813   1.406       .  A
C812        H817   1.083       .  S
C813        C814   1.416       .  A
C814        C815   1.517       .  S
C815        F819   1.385       .  S
C815        F820   1.383       .  S
C815        F821   1.382       .  S
C818        F822   1.383       .  S
C818        F823   1.383       .  S
C818        F824   1.384       .  S
C825        C826   1.398       .  A
C825        C830   1.404       .  A
C825        H832   1.084       .  S
C826        C827   1.423       .  A
C827        C828   1.407       .  A
C827        C834   1.508       .  S
C828        C829   1.397       .  A
C828        H833   1.084       .  S
C829        C830   1.422       .  A
C830        C831   1.510       .  S
C831        F835   1.384       .  S
C831        F836   1.382       .  S
C831        F837   1.378       .  S
C834        F838   1.382       .  S
C834        F839   1.376       .  S
C834        F840   1.384       .  S
C841        C842   1.403       .  A
C841        C846   1.405       .  A
C841        H848   1.084       .  S
C842        C843   1.406       .  A
C843        C844   1.401   1_565  A
C843        C850   1.519   1_565  S
C844        C845   1.412       .  A
C844        H849   1.078       .  S
C845        C846   1.419   1_545  A
C846        C847   1.520       .  S
C847        F851   1.385       .  S
C847        F852   1.383       .  S
C847        F853   1.383       .  S
C850        F854   1.383       .  S
C850        F855   1.383   1_545  S
C850        F856   1.383       .  S
C857        C858   1.406       .  A
C857        C862   1.395       .  A
C857        H864   1.082       .  S
C858        C859   1.423       .  A
C859        C860   1.401       .  A
C859        C866   1.524       .  S
C860        C861   1.402       .  A
C860        H865   1.081       .  S
C861        C862   1.419       .  A
C862        C863   1.526       .  S
C863        F867   1.385       .  S
C863        F868   1.380       .  S
C863        F869   1.382       .  S
C866        F870   1.383       .  S
C866        F871   1.378       .  S
C866        F872   1.385       .  S
C873        C874   1.413       .  A
C873        C878   1.411   1_565  A
C873        H880   1.083       .  S
C874        C875   1.411       .  A
C875        C876   1.404   1_565  A
C875        C882   1.516       .  S
C876        C877   1.411       .  A
C876        H881   1.083       .  S
C877        C878   1.411       .  A
C878        C879   1.515       .  S
C879        F883   1.385   1_545  S
C879        F884   1.383       .  S
C879        F885   1.383       .  S
C882        F886   1.382       .  S
C882        F887   1.383       .  S
C882        F888   1.385   1_565  S
C889        C890   1.408       .  A
C889        C894   1.401   1_565  A
C889        H896   1.082       .  S
C890        C891   1.425       .  A
C891        C892   1.405   1_565  A
C891        C898   1.523       .  S
C892        C893   1.403       .  A
C892        H897   1.081       .  S
C893        C894   1.419       .  A
C894        C895   1.523       .  S
C895        F899   1.385       .  S
C895        F900   1.383   1_545  S
C895        F901   1.384       .  S
C898        F902   1.383       .  S
C898        F903   1.375       .  S
C898        F904   1.384       .  S
C905        C906   1.414       .  A
C905        C910   1.414       .  A
C905        H912   1.083       .  S
C906        C907   1.409       .  A
C907        C908   1.405       .  A
C907        C914   1.518   1_556  S
C908        C909   1.417       .  A
C908        H913   1.081       .  S
C909        C910   1.413       .  A
C910        C911   1.516       .  S
C911        F915   1.385       .  S
C911        F916   1.382       .  S
C911        F917   1.384       .  S
C914        F918   1.382       .  S
C914        F919   1.383       .  S
C914        F920   1.385       .  S
C921        C922   1.403       .  A
C921        C926   1.399       .  A
C921        H928   1.083       .  S
C922        C923   1.430       .  A
C923        C924   1.396       .  A
C923        C930   1.527       .  S
C924        C925   1.396       .  A
C924        H929   1.083       .  S
C925        C926   1.420       .  A
C926        C927   1.523       .  S
C927        F931   1.385       .  S
C927        F932   1.381       .  S
C927        F933   1.382       .  S
C930        F934   1.380       .  S
C930        F935   1.383       .  S
C930        F936   1.385       .  S
C937        C938   1.412       .  A
C937        C942   1.417       .  A
C937        H944   1.084       .  S
C938        C939   1.419       .  A
C939        C940   1.416       .  A
C939        C946   1.512       .  S
C940        C941   1.406       .  A
C940        H945   1.083       .  S
C941        C942   1.414       .  A
C942        C943   1.516       .  S
C943        F947   1.384       .  S
C943        F948   1.383       .  S
C943        F949   1.383       .  S
C946        F950   1.382       .  S
C946        F951   1.379       .  S
C946        F952   1.385       .  S
C953        C954   1.405       .  A
C953        C958   1.409       .  A
C953        H960   1.083       .  S
C954        C955   1.409       .  A
C955        C956   1.404       .  A
C955        C962   1.518       .  S
C956        C957   1.411       .  A
C956        H961   1.079       .  S
C957        C958   1.423       .  A
C958        C959   1.520       .  S
C959        F963   1.385       .  S
C959        F964   1.383       .  S
C959        F965   1.382       .  S
C962        F966   1.382       .  S
C962        F967   1.382       .  S
C962        F968   1.383       .  S
C969        C970   1.406       .  A
C969        C974   1.417       .  A
C969        H976   1.083       .  S
C970        C971   1.413       .  A
C971        C972   1.416       .  A
C971        C978   1.511       .  S
C972        C973   1.410       .  A
C972        H977   1.080       .  S
C973        C974   1.419       .  A
C974        C975   1.513       .  S
C975        F979   1.385       .  S
C975        F980   1.381       .  S
C975        F981   1.381       .  S
C978        F982   1.383       .  S
C978        F983   1.383       .  S
C978        F984   1.385       .  S
C985        C986   1.394       .  A
C985        C990   1.404   1_545  A
C985        H992   1.084       .  S
C986        C987   1.425       .  A
C987        C988   1.406   1_545  A
C987        C994   1.507       .  S
C988        C989   1.393       .  A
C988        H993   1.084       .  S
C989        C990   1.424       .  A
C990        C991   1.503       .  S
C991        F995   1.384       .  S
C991        F996   1.382       .  S
C991        F997   1.381       .  S
C994        F998   1.378       .  S
C994        F999   1.382       .  S
C994       F1000   1.384       .  S
C1001      C1002   1.403   1_565  A
C1001      C1006   1.409       .  A
C1001      H1008   1.083       .  S
C1002      C1003   1.421       .  A
C1003      C1004   1.401   1_545  A
C1003      C1010   1.525       .  S
C1004      C1005   1.407       .  A
C1004      H1009   1.081       .  S
C1005      C1006   1.426       .  A
C1006      C1007   1.520       .  S
C1007      F1011   1.385       .  S
C1007      F1012   1.381       .  S
C1007      F1013   1.382       .  S
C1010      F1014   1.382       .  S
C1010      F1015   1.382   1_545  S
C1010      F1016   1.385       .  S
C1017      C1018   1.403       .  A
C1017      C1022   1.407       .  A
C1017      H1024   1.082       .  S
C1018      C1019   1.430       .  A
C1019      C1020   1.411       .  A
C1019      C1026   1.522       .  S
C1020      C1021   1.398       .  A
C1020      H1025   1.083       .  S
C1021      C1022   1.421       .  A
C1022      C1023   1.521       .  S
C1023      F1027   1.385   1_545  S
C1023      F1028   1.381   1_545  S
C1023      F1029   1.382       .  S
C1026      F1030   1.383       .  S
C1026      F1031   1.384       .  S
C1026      F1032   1.385       .  S
C1033      C1034   1.408       .  A
C1033      C1038   1.409       .  A
C1033      H1040   1.082       .  S
C1034      C1035   1.431       .  A
C1035      C1036   1.397       .  A
C1035      C1042   1.526       .  S
C1036      C1037   1.396       .  A
C1036      H1041   1.083       .  S
C1037      C1038   1.416       .  A
C1038      C1039   1.514       .  S
C1039      F1043   1.385       .  S
C1039      F1044   1.377       .  S
C1039      F1045   1.382       .  S
C1042      F1046   1.383       .  S
C1042      F1047   1.378       .  S
C1042      F1048   1.385       .  S
C1049      C1050   1.402       .  A
C1049      C1054   1.408       .  A
C1049      H1056   1.084       .  S
C1050      C1051   1.419       .  A
C1051      C1052   1.418       .  A
C1051      C1058   1.512       .  S
C1052      C1053   1.407       .  A
C1052      H1057   1.083       .  S
C1053      C1054   1.418       .  A
C1054      C1055   1.511       .  S
C1055      F1059   1.385       .  S
C1055      F1060   1.381       .  S
C1055      F1061   1.381       .  S
C1058      F1062   1.382       .  S
C1058      F1063   1.382       .  S
C1058      F1064   1.384       .  S
C1065      C1066   1.414   1_565  A
C1065      C1070   1.417       .  A
C1065      H1072   1.082       .  S
C1066      C1067   1.422       .  A
C1067      C1068   1.420   1_545  A
C1067      C1074   1.518       .  S
C1068      C1069   1.416       .  A
C1068      H1073   1.081   1_565  S
C1069      C1070   1.424       .  A
C1070      C1071   1.518       .  S
C1071      F1075   1.385       .  S
C1071      F1076   1.379       .  S
C1071      F1077   1.382       .  S
C1074      F1078   1.384       .  S
C1074      F1079   1.382       .  S
C1074      F1080   1.385       .  S
C1081      C1082   1.413       .  A
C1081      C1086   1.420       .  A
C1081      H1088   1.083       .  S
C1082      C1083   1.409       .  A
C1083      C1084   1.384       .  A
C1083      C1090   1.520   1_545  S
C1084      C1085   1.405       .  A
C1084      H1089   1.082   1_545  S
C1085      C1086   1.411       .  A
C1086      C1087   1.512       .  S
C1087      F1091   1.385       .  S
C1087      F1092   1.383       .  S
C1087      F1093   1.383       .  S
C1090      F1094   1.378   1_565  S
C1090      F1095   1.381       .  S
C1090      F1096   1.385       .  S
C1097      C1098   1.406       .  A
C1097      C1102   1.396       .  A
C1097      H1104   1.083       .  S
C1098      C1099   1.420       .  A
C1099      C1100   1.408       .  A
C1099      C1106   1.520       .  S
C1100      C1101   1.402       .  A
C1100      H1105   1.084       .  S
C1101      C1102   1.406       .  A
C1102      C1103   1.520       .  S
C1103      F1107   1.384       .  S
C1103      F1108   1.384       .  S
C1103      F1109   1.382       .  S
C1106      F1110   1.382       .  S
C1106      F1111   1.384       .  S
C1106      F1112   1.385       .  S
C1113      C1114   1.399       .  A
C1113      C1118   1.411       .  A
C1113      H1120   1.084       .  S
C1114      C1115   1.418       .  A
C1115      C1116   1.413       .  A
C1115      C1122   1.513       .  S
C1116      C1117   1.404       .  A
C1116      H1121   1.080       .  S
C1117      C1118   1.427       .  A
C1118      C1119   1.519       .  S
C1119      F1123   1.385       .  S
C1119      F1124   1.381       .  S
C1119      F1125   1.383       .  S
C1122      F1126   1.383       .  S
C1122      F1127   1.383       .  S
C1122      F1128   1.384       .  S
C1129      C1130   1.399   1_545  A
C1129      C1134   1.402       .  A
C1129      H1136   1.083       .  S
C1130      C1131   1.425       .  A
C1131      C1132   1.404       .  A
C1131      C1138   1.518       .  S
C1132      C1133   1.397   1_565  A
C1132      H1137   1.084       .  S
C1133      C1134   1.425       .  A
C1134      C1135   1.525       .  S
C1135      F1139   1.385       .  S
C1135      F1140   1.380       .  S
C1135      F1141   1.380       .  S
C1138      F1142   1.382       .  S
C1138      F1143   1.384       .  S
C1138      F1144   1.385       .  S
C1145      C1146   1.404       .  A
C1145      C1150   1.416       .  A
C1145      H1152   1.083       .  S
C1146      C1147   1.436       .  A
C1147      C1148   1.395       .  A
C1147      C1154   1.528       .  S
C1148      C1149   1.388       .  A
C1148      H1153   1.084       .  S
C1149      C1150   1.421       .  A
C1150      C1151   1.511       .  S
C1151      F1155   1.381       .  S
C1151      F1156   1.384       .  S
C1151      F1157   1.385       .  S
C1154      F1158   1.384       .  S
C1154      F1159   1.383       .  S
C1154      F1160   1.386   1_565  S
C1161      C1162   1.417       .  A
C1161      C1166   1.417   1_564  A
C1161      H1168   1.082       .  S
C1162      C1163   1.410       .  A
C1163      C1164   1.416   1_554  A
C1163      C1170   1.515       .  S
C1164      C1165   1.417   1_565  A
C1164      H1169   1.083       .  S
C1165      C1166   1.412       .  A
C1166      C1167   1.517       .  S
C1167      F1171   1.385       .  S
C1167      F1172   1.382       .  S
C1167      F1173   1.384       .  S
C1170      F1174   1.383       .  S
C1170      F1175   1.383   1_554  S
C1170      F1176   1.384       .  S
C1177      C1178   1.407       .  A
C1177      C1182   1.417       .  A
C1177      H1184   1.080       .  S
C1178      C1179   1.414       .  A
C1179      C1180   1.408       .  A
C1179      C1186   1.518       .  S
C1180      C1181   1.409       .  A
C1180      H1185   1.084       .  S
C1181      C1182   1.416       .  A
C1182      C1183   1.514       .  S
C1183      F1187   1.384       .  S
C1183      F1188   1.382       .  S
C1183      F1189   1.383       .  S
C1186      F1190   1.382       .  S
C1186      F1191   1.385       .  S
C1186      F1192   1.374       .  S
C1193      C1194   1.417       .  A
C1193      C1198   1.422       .  A
C1193      H1200   1.083       .  S
C1194      C1195   1.415       .  A
C1195      C1196   1.415       .  A
C1195      C1202   1.517       .  S
C1196      C1197   1.414       .  A
C1196      H1201   1.083       .  S
C1197      C1198   1.417       .  A
C1198      C1199   1.517       .  S
C1199      F1203   1.385       .  S
C1199      F1204   1.383       .  S
C1199      F1205   1.384       .  S
C1202      F1206   1.383       .  S
C1202      F1207   1.382       .  S
C1202      F1208   1.385       .  S
C1209      C1210   1.406       .  A
C1209      C1214   1.411       .  A
C1209      H1216   1.086       .  S
C1210      C1211   1.415       .  A
C1211      C1212   1.412   1_556  A
C1211      C1218   1.514   1_556  S
C1212      C1213   1.406   1_554  A
C1212      H1217   1.084       .  S
C1213      C1214   1.421       .  A
C1214      C1215   1.516       .  S
C1215      F1219   1.384       .  S
C1215      F1220   1.377       .  S
C1215      F1221   1.383       .  S
C1218      F1222   1.381   1_545  S
C1218      F1223   1.383   1_544  S
C1218      F1224   1.385       .  S
C1225      C1226   1.399       .  A
C1225      C1230   1.403       .  A
C1225      H1232   1.083       .  S
C1226      C1227   1.425       .  A
C1227      C1228   1.400       .  A
C1227      C1234   1.527       .  S
C1228      C1229   1.402       .  A
C1228      H1233   1.082       .  S
C1229      C1230   1.430       .  A
C1230      C1231   1.525       .  S
C1231      F1235   1.385       .  S
C1231      F1236   1.383       .  S
C1231      F1237   1.379       .  S
C1234      F1238   1.382       .  S
C1234      F1239   1.379       .  S
C1234      F1240   1.385       .  S
C1241      C1242   1.417       .  A
C1241      C1246   1.424       .  A
C1241      H1248   1.082       .  S
C1242      C1243   1.419       .  A
C1243      C1244   1.423       .  A
C1243      C1250   1.517       .  S
C1244      C1245   1.417       .  A
C1244      H1249   1.082       .  S
C1245      C1246   1.420       .  A
C1246      C1247   1.518       .  S
C1247      F1251   1.384       .  S
C1247      F1252   1.382       .  S
C1247      F1253   1.384       .  S
C1250      F1254   1.384       .  S
C1250      F1255   1.383       .  S
C1250      F1256   1.384       .  S
C1257      C1258   1.411       .  A
C1257      C1262   1.411       .  A
C1257      H1264   1.084       .  S
C1258      C1259   1.411       .  A
C1259      C1260   1.404       .  A
C1259      C1266   1.516       .  S
C1260      C1261   1.414       .  A
C1260      H1265   1.083       .  S
C1261      C1262   1.410       .  A
C1262      C1263   1.511       .  S
C1263      F1267   1.385       .  S
C1263      F1268   1.384       .  S
C1263      F1269   1.379       .  S
C1266      F1270   1.384       .  S
C1266      F1271   1.381       .  S
C1266      F1272   1.385       .  S
C1273      C1274   1.402       .  A
C1273      C1278   1.403       .  A
C1273      H1280   1.084       .  S
C1274      C1275   1.418       .  A
C1275      C1276   1.394       .  A
C1275      C1282   1.513       .  S
C1276      C1277   1.395       .  A
C1276      H1281   1.086       .  S
C1277      C1278   1.409       .  A
C1278      C1279   1.504       .  S
C1279      F1283   1.380       .  S
C1279      F1284   1.380       .  S
C1279      F1285   1.384       .  S
C1282      F1286   1.381       .  S
C1282      F1287   1.379       .  S
C1282      F1288   1.383       .  S
C1289      C1290   1.407       .  A
C1289      C1294   1.413       .  A
C1289      H1296   1.079       .  S
C1290      C1291   1.418       .  A
C1291      C1292   1.408       .  A
C1291      C1298   1.516       .  S
C1292      C1293   1.401       .  A
C1292      H1297   1.082       .  S
C1293      C1294   1.413       .  A
C1294      C1295   1.516       .  S
C1295      F1299   1.385       .  S
C1295      F1300   1.383       .  S
C1295      F1301   1.384       .  S
C1298      F1302   1.382       .  S
C1298      F1303   1.382       .  S
C1298      F1304   1.385       .  S
C1305      C1306   1.402       .  A
C1305      C1310   1.405       .  A
C1305      H1312   1.083       .  S
C1306      C1307   1.423       .  A
C1307      C1308   1.400       .  A
C1307      C1314   1.522       .  S
C1308      C1309   1.397       .  A
C1308      H1313   1.083       .  S
C1309      C1310   1.421       .  A
C1310      C1311   1.520       .  S
C1311      F1315   1.385       .  S
C1311      F1316   1.382       .  S
C1311      F1317   1.383       .  S
C1314      F1318   1.381       .  S
C1314      F1319   1.381       .  S
C1314      F1320   1.385       .  S
C1321      C1322   1.403       .  A
C1321      C1326   1.408       .  A
C1321      H1328   1.075       .  S
C1322      C1323   1.410       .  A
C1323      C1324   1.402       .  A
C1323      C1330   1.518       .  S
C1324      C1325   1.404       .  A
C1324      H1329   1.083       .  S
C1325      C1326   1.415       .  A
C1326      C1327   1.519       .  S
C1327      F1331   1.384       .  S
C1327      F1332   1.383       .  S
C1327      F1333   1.383       .  S
C1330      F1334   1.382       .  S
C1330      F1335   1.383       .  S
C1330      F1336   1.385       .  S
C1337      C1338   1.414       .  A
C1337      C1342   1.406       .  A
C1337      H1344   1.073       .  S
C1338      C1339   1.410       .  A
C1339      C1340   1.409       .  A
C1339      C1346   1.517       .  S
C1340      C1341   1.414       .  A
C1340      H1345   1.080       .  S
C1341      C1342   1.411       .  A
C1342      C1343   1.519   1_554  S
C1343      F1347   1.384       .  S
C1343      F1348   1.383       .  S
C1343      F1349   1.383       .  S
C1346      F1350   1.383       .  S
C1346      F1351   1.382       .  S
C1346      F1352   1.385       .  S
C1353      C1354   1.400       .  A
C1353      C1358   1.408       .  A
C1353      H1360   1.083       .  S
C1354      C1355   1.412       .  A
C1355      C1356   1.398       .  A
C1355      C1362   1.521       .  S
C1356      C1357   1.409       .  A
C1356      H1361   1.082       .  S
C1357      C1358   1.422       .  A
C1358      C1359   1.519       .  S
C1359      F1363   1.378       .  S
C1359      F1364   1.381       .  S
C1359      F1365   1.383       .  S
C1362      F1366   1.384       .  S
C1362      F1367   1.382       .  S
C1362      F1368   1.385       .  S
C1369      C1370   1.408       .  A
C1369      C1374   1.415       .  A
C1369      H1376   1.084       .  S
C1370      C1371   1.418       .  A
C1371      C1372   1.410       .  A
C1371      C1378   1.509       .  S
C1372      C1373   1.402       .  A
C1372      H1377   1.083       .  S
C1373      C1374   1.416       .  A
C1374      C1375   1.511       .  S
C1375      F1379   1.385       .  S
C1375      F1380   1.383       .  S
C1375      F1381   1.383       .  S
C1378      F1382   1.381       .  S
C1378      F1383   1.377       .  S
C1378      F1384   1.385       .  S
C1385      C1386   1.412       .  A
C1385      C1390   1.403       .  A
C1385      H1392   1.082       .  S
C1386      C1387   1.420       .  A
C1387      C1388   1.408       .  A
C1387      C1394   1.521       .  S
C1388      C1389   1.411       .  A
C1388      H1393   1.082       .  S
C1389      C1390   1.416       .  A
C1390      C1391   1.519       .  S
C1391      F1395   1.385       .  S
C1391      F1396   1.381       .  S
C1391      F1397   1.383       .  S
C1394      F1398   1.384       .  S
C1394      F1399   1.383       .  S
C1394      F1400   1.385       .  S
C1401      C1402   1.415       .  A
C1401      C1406   1.400       .  A
C1401      H1408   1.081       .  S
C1402      C1403   1.419       .  A
C1403      C1404   1.426       .  A
C1403      C1410   1.513       .  S
C1404      C1405   1.410       .  A
C1404      H1409   1.081       .  S
C1405      C1406   1.406       .  A
C1406      C1407   1.515       .  S
C1407      F1411   1.384       .  S
C1407      F1412   1.384       .  S
C1407      F1413   1.382       .  S
C1410      F1414   1.384       .  S
C1410      F1415   1.383       .  S
C1410      F1416   1.383       .  S
C1417      C1418   1.402       .  A
C1417      C1422   1.407       .  A
C1417      H1424   1.084       .  S
C1418      C1419   1.413       .  A
C1419      C1420   1.413       .  A
C1419      C1426   1.512       .  S
C1420      C1421   1.409       .  A
C1420      H1425   1.084       .  S
C1421      C1422   1.414       .  A
C1422      C1423   1.510       .  S
C1423      F1427   1.384       .  S
C1423      F1428   1.381       .  S
C1423      F1429   1.383       .  S
C1426      F1430   1.382       .  S
C1426      F1431   1.383       .  S
C1426      F1432   1.385       .  S
C1433      C1434   1.418       .  A
C1433      C1438   1.417       .  A
C1433      H1440   1.082       .  S
C1434      C1435   1.414       .  A
C1435      C1436   1.417   1_556  A
C1435      C1442   1.517       .  S
C1436      C1437   1.418       .  A
C1436      H1441   1.083       .  S
C1437      C1438   1.413   1_554  A
C1438      C1439   1.516   1_556  S
C1439      F1443   1.385   1_554  S
C1439      F1444   1.383       .  S
C1439      F1445   1.382   1_554  S
C1442      F1446   1.382       .  S
C1442      F1447   1.384       .  S
C1442      F1448   1.385       .  S
C1449      C1450   1.404       .  A
C1449      C1454   1.413       .  A
C1449      H1456   1.084       .  S
C1450      C1451   1.416       .  A
C1451      C1452   1.414       .  A
C1451      C1458   1.518       .  S
C1452      C1453   1.410       .  A
C1452      H1457   1.084       .  S
C1453      C1454   1.417       .  A
C1454      C1455   1.511       .  S
C1455      F1459   1.384       .  S
C1455      F1460   1.383       .  S
C1455      F1461   1.381       .  S
C1458      F1462   1.383       .  S
C1458      F1463   1.383       .  S
C1458      F1464   1.385       .  S
C1465      C1466   1.407       .  A
C1465      C1470   1.414       .  A
C1465      H1472   1.081       .  S
C1466      C1467   1.413       .  A
C1467      C1468   1.414       .  A
C1467      C1474   1.515       .  S
C1468      C1469   1.411       .  A
C1468      H1473   1.084       .  S
C1469      C1470   1.414       .  A
C1470      C1471   1.515       .  S
C1471      F1475   1.384       .  S
C1471      F1476   1.381       .  S
C1471      F1477   1.383       .  S
C1474      F1478   1.382       .  S
C1474      F1479   1.383       .  S
C1474      F1480   1.385       .  S
C1481      C1482   1.418       .  A
C1481      C1486   1.419       .  A
C1481      H1488   1.079       .  S
C1482      C1483   1.421       .  A
C1483      C1484   1.418       .  A
C1483      C1490   1.519       .  S
C1484      C1485   1.416       .  A
C1484      H1489   1.079       .  S
C1485      C1486   1.420       .  A
C1486      C1487   1.520       .  S
C1487      F1491   1.385       .  S
C1487      F1492   1.384       .  S
C1487      F1493   1.382       .  S
C1490      F1494   1.382       .  S
C1490      F1495   1.382       .  S
C1490      F1496   1.385       .  S
C1497      C1498   1.405       .  A
C1497      C1502   1.403       .  A
C1497      H1504   1.083       .  S
C1498      C1499   1.408       .  A
C1499      C1500   1.401       .  A
C1499      C1506   1.519       .  S
C1500      C1501   1.413       .  A
C1500      H1505   1.078       .  S
C1501      C1502   1.420       .  A
C1502      C1503   1.521       .  S
C1503      F1507   1.385       .  S
C1503      F1508   1.383       .  S
C1503      F1509   1.384       .  S
C1506      F1510   1.382       .  S
C1506      F1511   1.383       .  S
C1506      F1512   1.384       .  S
C1513      C1514   1.399       .  A
C1513      C1518   1.408       .  A
C1513      H1520   1.079       .  S
C1514      C1515   1.411       .  A
C1515      C1516   1.397       .  A
C1515      C1522   1.521       .  S
C1516      C1517   1.410       .  A
C1516      H1521   1.082       .  S
C1517      C1518   1.425       .  A
C1518      C1519   1.520       .  S
C1519      F1523   1.385       .  S
C1519      F1524   1.383       .  S
C1519      F1525   1.383       .  S
C1522      F1526   1.382       .  S
C1522      F1527   1.381       .  S
C1522      F1528   1.385       .  S
C1529      C1530   1.402       .  A
C1529      C1534   1.414       .  A
C1529      H1536   1.080       .  S
C1530      C1531   1.421       .  A
C1531      C1532   1.420       .  A
C1531      C1538   1.517       .  S
C1532      C1533   1.407       .  A
C1532      H1537   1.083       .  S
C1533      C1534   1.423       .  A
C1534      C1535   1.518       .  S
C1535      F1539   1.385       .  S
C1535      F1540   1.383       .  S
C1535      F1541   1.381       .  S
C1538      F1542   1.384       .  S
C1538      F1543   1.383       .  S
C1538      F1544   1.385       .  S
C1545      C1546   1.401       .  A
C1545      C1550   1.415       .  A
C1545      H1552   1.083       .  S
C1546      C1547   1.420       .  A
C1547      C1548   1.415       .  A
C1547      C1554   1.515       .  S
C1548      C1549   1.403       .  A
C1548      H1553   1.084       .  S
C1549      C1550   1.426       .  A
C1550      C1551   1.518       .  S
C1551      F1555   1.385       .  S
C1551      F1556   1.381       .  S
C1551      F1557   1.379       .  S
C1554      F1558   1.383       .  S
C1554      F1559   1.384       .  S
C1554      F1560   1.383       .  S
C1561      C1562   1.406       .  A
C1561      C1566   1.417       .  A
C1561      H1568   1.079       .  S
C1562      C1563   1.424       .  A
C1563      C1564   1.416       .  A
C1563      C1570   1.519       .  S
C1564      C1565   1.406       .  A
C1564      H1569   1.083       .  S
C1565      C1566   1.424       .  A
C1566      C1567   1.521       .  S
C1567      F1571   1.385       .  S
C1567      F1572   1.382       .  S
C1567      F1573   1.383       .  S
C1570      F1574   1.384       .  S
C1570      F1575   1.382       .  S
C1570      F1576   1.385       .  S
C1577      C1578   1.405       .  A
C1577      C1582   1.417       .  A
C1577      H1584   1.083       .  S
C1578      C1579   1.421   1_554  A
C1579      C1580   1.406   1_556  A
C1579      C1586   1.517       .  S
C1580      C1581   1.398       .  A
C1580      H1585   1.077   1_554  S
C1581      C1582   1.419       .  A
C1582      C1583   1.516       .  S
C1583      F1587   1.384       .  S
C1583      F1588   1.379       .  S
C1583      F1589   1.382       .  S
C1586      F1590   1.381       .  S
C1586      F1591   1.381       .  S
C1586      F1592   1.385       .  S
C1593      C1594   1.397       .  A
C1593      C1598   1.407       .  A
C1593      H1600   1.084       .  S
C1594      C1595   1.423       .  A
C1595      C1596   1.402       .  A
C1595      C1602   1.507       .  S
C1596      C1597   1.394       .  A
C1596      H1601   1.084       .  S
C1597      C1598   1.426       .  A
C1598      C1599   1.513       .  S
C1599      F1603   1.384   1_556  S
C1599      F1604   1.382       .  S
C1599      F1605   1.382   1_556  S
C1602      F1606   1.382       .  S
C1602      F1607   1.382       .  S
C1602      F1608   1.384       .  S
C1609      C1610   1.402       .  A
C1609      C1614   1.405       .  A
C1609      H1616   1.084       .  S
C1610      C1611   1.410       .  A
C1611      C1612   1.409       .  A
C1611      C1618   1.515       .  S
C1612      C1613   1.409       .  A
C1612      H1617   1.084       .  S
C1613      C1614   1.417       .  A
C1614      C1615   1.516       .  S
C1615      F1619   1.385       .  S
C1615      F1620   1.382       .  S
C1615      F1621   1.381       .  S
C1618      F1622   1.383   1_554  S
C1618      F1623   1.383       .  S
C1618      F1624   1.383       .  S
C1625      C1626   1.417       .  A
C1625      C1630   1.418       .  A
C1625      H1632   1.082       .  S
C1626      C1627   1.414       .  A
C1627      C1628   1.421       .  A
C1627      C1634   1.517       .  S
C1628      C1629   1.420       .  A
C1628      H1633   1.082       .  S
C1629      C1630   1.415       .  A
C1630      C1631   1.516       .  S
C1631      F1635   1.383       .  S
C1631      F1636   1.383       .  S
C1631      F1637   1.385       .  S
C1634      F1638   1.382       .  S
C1634      F1639   1.384       .  S
C1634      F1640   1.385       .  S
C1641      C1642   1.407       .  A
C1641      C1646   1.415       .  A
C1641      H1648   1.069       .  S
C1642      C1643   1.405       .  A
C1643      C1644   1.399       .  A
C1643      C1650   1.513       .  S
C1644      C1645   1.404       .  A
C1644      H1649   1.065       .  S
C1645      C1646   1.416       .  A
C1646      C1647   1.519       .  S
C1647      F1651   1.385       .  S
C1647      F1652   1.384       .  S
C1647      F1653   1.382       .  S
C1650      F1654   1.383       .  S
C1650      F1655   1.379       .  S
C1650      F1656   1.383       .  S
C1657      C1658   1.407       .  A
C1657      C1662   1.412       .  A
C1657      H1664   1.084       .  S
C1658      C1659   1.417       .  A
C1659      C1660   1.413       .  A
C1659      C1666   1.514       .  S
C1660      C1661   1.405       .  A
C1660      H1665   1.083       .  S
C1661      C1662   1.413       .  A
C1662      C1663   1.512       .  S
C1663      F1667   1.384       .  S
C1663      F1668   1.383       .  S
C1663      F1669   1.383       .  S
C1666      F1670   1.380       .  S
C1666      F1671   1.382       .  S
C1666      F1672   1.384       .  S
C1673      C1674   1.417       .  A
C1673      C1678   1.402       .  A
C1673      H1680   1.068       .  S
C1674      C1675   1.413       .  A
C1675      C1676   1.410       .  A
C1675      C1682   1.516       .  S
C1676      C1677   1.414       .  A
C1676      H1681   1.082       .  S
C1677      C1678   1.407       .  A
C1678      C1679   1.520       .  S
C1679      F1683   1.384       .  S
C1679      F1684   1.383       .  S
C1679      F1685   1.383       .  S
C1682      F1686   1.383       .  S
C1682      F1687   1.383       .  S
C1682      F1688   1.385       .  S
C1689      C1690   1.398       .  A
C1689      C1694   1.404       .  A
C1689      H1696   1.082       .  S
C1690      C1691   1.411       .  A
C1691      C1692   1.399       .  A
C1691      C1698   1.521       .  S
C1692      C1693   1.407       .  A
C1692      H1697   1.083       .  S
C1693      C1694   1.421       .  A
C1694      C1695   1.520       .  S
C1695      F1699   1.385       .  S
C1695      F1700   1.384       .  S
C1695      F1701   1.383       .  S
C1698      F1702   1.382       .  S
C1698      F1703   1.384       .  S
C1698      F1704   1.385       .  S
C1705      C1706   1.412       .  A
C1705      C1710   1.418       .  A
C1705      H1712   1.084       .  S
C1706      C1707   1.415       .  A
C1707      C1708   1.410       .  A
C1707      C1714   1.514       .  S
C1708      C1709   1.404       .  A
C1708      H1713   1.080       .  S
C1709      C1710   1.413       .  A
C1710      C1711   1.514       .  S
C1711      F1715   1.383       .  S
C1711      F1716   1.383       .  S
C1711      F1717   1.384       .  S
C1714      F1718   1.381       .  S
C1714      F1719   1.381       .  S
C1714      F1720   1.385       .  S
C1721      C1722   1.413       .  A
C1721      C1726   1.407       .  A
C1721      H1728   1.078       .  S
C1722      C1723   1.422       .  A
C1723      C1724   1.407       .  A
C1723      C1730   1.520       .  S
C1724      C1725   1.402       .  A
C1724      H1729   1.083       .  S
C1725      C1726   1.408       .  A
C1726      C1727   1.519       .  S
C1727      F1731   1.384       .  S
C1727      F1732   1.383       .  S
C1727      F1733   1.383       .  S
C1730      F1734   1.383       .  S
C1730      F1735   1.382       .  S
C1730      F1736   1.385       .  S
C1737      C1738   1.390       .  A
C1737      C1742   1.399       .  A
C1737      H1744   1.084       .  S
C1738      C1739   1.415       .  A
C1739      C1740   1.414       .  A
C1739      C1746   1.514       .  S
C1740      C1741   1.406       .  A
C1740      H1745   1.083       .  S
C1741      C1742   1.438       .  A
C1742      C1743   1.530       .  S
C1743      F1747   1.386       .  S
C1743      F1748   1.380       .  S
C1743      F1749   1.379       .  S
C1746      F1750   1.384       .  S
C1746      F1751   1.384       .  S
C1746      F1752   1.381       .  S
C1753      C1754   1.400       .  A
C1753      C1758   1.409       .  A
C1753      H1760   1.084       .  S
C1754      C1755   1.416       .  A
C1755      C1756   1.416       .  A
C1755      C1762   1.515       .  S
C1756      C1757   1.407       .  A
C1756      H1761   1.083       .  S
C1757      C1758   1.425       .  A
C1758      C1759   1.519       .  S
C1759      F1763   1.385       .  S
C1759      F1764   1.382       .  S
C1759      F1765   1.379       .  S
C1762      F1766   1.383       .  S
C1762      F1767   1.383       .  S
C1762      F1768   1.384       .  S
C1769      C1770   1.411       .  A
C1769      C1774   1.410       .  A
C1769      H1776   1.084       .  S
C1770      C1771   1.417       .  A
C1771      C1772   1.420       .  A
C1771      C1778   1.511       .  S
C1772      C1773   1.407       .  A
C1772      H1777   1.083       .  S
C1773      C1774   1.413       .  A
C1774      C1775   1.517       .  S
C1775      F1779   1.385       .  S
C1775      F1780   1.381       .  S
C1775      F1781   1.383       .  S
C1778      F1782   1.383       .  S
C1778      F1783   1.382       .  S
C1778      F1784   1.385       .  S
C1785      C1786   1.408       .  A
C1785      C1790   1.397       .  A
C1785      H1792   1.081       .  S
C1786      C1787   1.419   1_655  A
C1787      C1788   1.402       .  A
C1787      C1794   1.522       .  S
C1788      C1789   1.407       .  A
C1788      H1793   1.083       .  S
C1789      C1790   1.414   1_455  A
C1790      C1791   1.521       .  S
C1791      F1795   1.385       .  S
C1791      F1796   1.381       .  S
C1791      F1797   1.382       .  S
C1794      F1798   1.384       .  S
C1794      F1799   1.383       .  S
C1794      F1800   1.385       .  S
C1801      C1802   1.400       .  A
C1801      C1806   1.416   1_556  A
C1801      H1808   1.083   1_556  S
C1802      C1803   1.415       .  A
C1803      C1804   1.414       .  A
C1803      C1810   1.508       .  S
C1804      C1805   1.410       .  A
C1804      H1809   1.084       .  S
C1805      C1806   1.437   1_556  A
C1806      C1807   1.524       .  S
C1807      F1811   1.385       .  S
C1807      F1812   1.381       .  S
C1807      F1813   1.384       .  S
C1810      F1814   1.381       .  S
C1810      F1815   1.383       .  S
C1810      F1816   1.383       .  S
C1817      C1818   1.406       .  A
C1817      C1822   1.417       .  A
C1817      H1824   1.082       .  S
C1818      C1819   1.419       .  A
C1819      C1820   1.415       .  A
C1819      C1826   1.519       .  S
C1820      C1821   1.408       .  A
C1820      H1825   1.083       .  S
C1821      C1822   1.417       .  A
C1822      C1823   1.513       .  S
C1823      F1827   1.385       .  S
C1823      F1828   1.383       .  S
C1823      F1829   1.383   1_455  S
C1826      F1830   1.385       .  S
C1826      F1831   1.378       .  S
C1826      F1832   1.383   1_554  S
C1833      C1834   1.426       .  A
C1833      C1838   1.414       .  A
C1833      H1840   1.081       .  S
C1834      C1835   1.418       .  A
C1835      C1836   1.420       .  A
C1835      C1842   1.516       .  S
C1836      C1837   1.418       .  A
C1836      H1841   1.083       .  S
C1837      C1838   1.409       .  A
C1838      C1839   1.519       .  S
C1839      F1843   1.384       .  S
C1839      F1844   1.383       .  S
C1839      F1845   1.384       .  S
C1842      F1846   1.383       .  S
C1842      F1847   1.383       .  S
C1842      F1848   1.385       .  S
C1849      C1850   1.416       .  A
C1849      C1854   1.414       .  A
C1849      H1856   1.083       .  S
C1850      C1851   1.413       .  A
C1851      C1852   1.412       .  A
C1851      C1858   1.518       .  S
C1852      C1853   1.410       .  A
C1852      H1857   1.073       .  S
C1853      C1854   1.406       .  A
C1854      C1855   1.513   1_554  S
C1855      F1859   1.382       .  S
C1855      F1860   1.382       .  S
C1855      F1861   1.384       .  S
C1858      F1862   1.383       .  S
C1858      F1863   1.383       .  S
C1858      F1864   1.384       .  S
C1865      C1866   1.401       .  A
C1865      C1870   1.406       .  A
C1865      H1872   1.083       .  S
C1866      C1867   1.417       .  A
C1867      C1868   1.394       .  A
C1867      C1874   1.524       .  S
C1868      C1869   1.406       .  A
C1868      H1873   1.082       .  S
C1869      C1870   1.426       .  A
C1870      C1871   1.521       .  S
C1871      F1875   1.384       .  S
C1871      F1876   1.381       .  S
C1871      F1877   1.384       .  S
C1874      F1878   1.383       .  S
C1874      F1879   1.383       .  S
C1874      F1880   1.385       .  S
C1881      C1882   1.406       .  A
C1881      C1886   1.415       .  A
C1881      H1888   1.083       .  S
C1882      C1883   1.413       .  A
C1883      C1884   1.411       .  A
C1883      C1890   1.509       .  S
C1884      C1885   1.405       .  A
C1884      H1889   1.084       .  S
C1885      C1886   1.418       .  A
C1886      C1887   1.515       .  S
C1887      F1891   1.385       .  S
C1887      F1892   1.380       .  S
C1887      F1893   1.382       .  S
C1890      F1894   1.384       .  S
C1890      F1895   1.383       .  S
C1890      F1896   1.384       .  S
C1897      C1898   1.406       .  A
C1897      C1902   1.421       .  A
C1897      H1904   1.083       .  S
C1898      C1899   1.436       .  A
C1899      C1900   1.418       .  A
C1899      C1906   1.523       .  S
C1900      C1901   1.401       .  A
C1900      H1905   1.081       .  S
C1901      C1902   1.434       .  A
C1902      C1903   1.521       .  S
C1903      F1907   1.385       .  S
C1903      F1908   1.384       .  S
C1903      F1909   1.382       .  S
C1906      F1910   1.382       .  S
C1906      F1911   1.384       .  S
C1906      F1912   1.384       .  S
C1913      C1914   1.412       .  A
C1913      C1918   1.401       .  A
C1913      H1920   1.082       .  S
C1914      C1915   1.412       .  A
C1915      C1916   1.404       .  A
C1915      C1922   1.521       .  S
C1916      C1917   1.411       .  A
C1916      H1921   1.075       .  S
C1917      C1918   1.415       .  A
C1918      C1919   1.522       .  S
C1919      F1923   1.385       .  S
C1919      F1924   1.382       .  S
C1919      F1925   1.381       .  S
C1922      F1926   1.384   1_556  S
C1922      F1927   1.383   1_556  S
C1922      F1928   1.381       .  S
C1929      C1930   1.402   1_455  A
C1929      C1934   1.402       .  A
C1929      H1936   1.082       .  S
C1930      C1931   1.413       .  A
C1931      C1932   1.403       .  A
C1931      C1938   1.519       .  S
C1932      C1933   1.402   1_655  A
C1932      H1937   1.084       .  S
C1933      C1934   1.410       .  A
C1934      C1935   1.517       .  S
C1935      F1939   1.385       .  S
C1935      F1940   1.383       .  S
C1935      F1941   1.383       .  S
C1938      F1942   1.383       .  S
C1938      F1943   1.382       .  S
C1938      F1944   1.385       .  S
C1945      C1946   1.409       .  A
C1945      C1950   1.412       .  A
C1945      H1952   1.084       .  S
C1946      C1947   1.417       .  A
C1947      C1948   1.413       .  A
C1947      C1954   1.510       .  S
C1948      C1949   1.404       .  A
C1948      H1953   1.083       .  S
C1949      C1950   1.414       .  A
C1950      C1951   1.516       .  S
C1951      F1955   1.384       .  S
C1951      F1956   1.382       .  S
C1951      F1957   1.383       .  S
C1954      F1958   1.379   1_565  S
C1954      F1959   1.383       .  S
C1954      F1960   1.385       .  S
C1961      C1962   1.405       .  A
C1961      C1966   1.414       .  A
C1961      H1968   1.082       .  S
C1962      C1963   1.413       .  A
C1963      C1964   1.414       .  A
C1963      C1970   1.512       .  S
C1964      C1965   1.409       .  A
C1964      H1969   1.084       .  S
C1965      C1966   1.416       .  A
C1966      C1967   1.513       .  S
C1967      F1971   1.385       .  S
C1967      F1972   1.383   1_655  S
C1967      F1973   1.378   1_655  S
C1970      F1974   1.384       .  S
C1970      F1975   1.383       .  S
C1970      F1976   1.384       .  S
C1977      C1978   1.415       .  A
C1977      C1982   1.419       .  A
C1977      H1984   1.082       .  S
C1978      C1979   1.418       .  A
C1979      C1980   1.424       .  A
C1979      C1986   1.517       .  S
C1980      C1981   1.420       .  A
C1980      H1985   1.082       .  S
C1981      C1982   1.420       .  A
C1982      C1983   1.518       .  S
C1983      F1987   1.384       .  S
C1983      F1988   1.383       .  S
C1983      F1989   1.384       .  S
C1986      F1990   1.384       .  S
C1986      F1991   1.382       .  S
C1986      F1992   1.384       .  S
C1993      C1994   1.412       .  A
C1993      C1998   1.404       .  A
C1993      H2000   1.082       .  S
C1994      C1995   1.414       .  A
C1995      C1996   1.407       .  A
C1995      C2002   1.518       .  S
C1996      C1997   1.411       .  A
C1996      H2001   1.083       .  S
C1997      C1998   1.412       .  A
C1998      C1999   1.519       .  S
C1999      F2003   1.385       .  S
C1999      F2004   1.383       .  S
C1999      F2005   1.382       .  S
C2002      F2006   1.383       .  S
C2002      F2007   1.384       .  S
C2002      F2008   1.385       .  S
C2009      C2010   1.408       .  A
C2009      C2014   1.389       .  A
C2009      H2016   1.083       .  S
C2010      C2011   1.425       .  A
C2011      C2012   1.406       .  A
C2011      C2018   1.521       .  S
C2012      C2013   1.400       .  A
C2012      H2017   1.083       .  S
C2013      C2014   1.409       .  A
C2014      C2015   1.519       .  S
C2015      F2019   1.382       .  S
C2015      F2020   1.379       .  S
C2015      F2021   1.382       .  S
C2018      F2022   1.380       .  S
C2018      F2023   1.382       .  S
C2018      F2024   1.384       .  S
C2025      C2026   1.402       .  A
C2025      C2030   1.412       .  A
C2025      H2032   1.085       .  S
C2026      C2027   1.425       .  A
C2027      C2028   1.412       .  A
C2027      C2034   1.519       .  S
C2028      C2029   1.401       .  A
C2028      H2033   1.084       .  S
C2029      C2030   1.421       .  A
C2030      C2031   1.513       .  S
C2031      F2035   1.383       .  S
C2031      F2036   1.383       .  S
C2031      F2037   1.380       .  S
C2034      F2038   1.382       .  S
C2034      F2039   1.382       .  S
C2034      F2040   1.385       .  S
C2041      C2042   1.414       .  A
C2041      C2046   1.410   1_455  A
C2041      H2048   1.082       .  S
C2042      C2043   1.409       .  A
C2043      C2044   1.410   1_455  A
C2043      C2050   1.514       .  S
C2044      C2045   1.416       .  A
C2044      H2049   1.084       .  S
C2045      C2046   1.412       .  A
C2046      C2047   1.516       .  S
C2047      F2051   1.385   1_655  S
C2047      F2052   1.384       .  S
C2047      F2053   1.380       .  S
C2050      F2054   1.384       .  S
C2050      F2055   1.381       .  S
C2050      F2056   1.383   1_455  S
C2057      C2058   1.406       .  A
C2057      C2062   1.404       .  A
C2057      H2064   1.083       .  S
C2058      C2059   1.411       .  A
C2059      C2060   1.404       .  A
C2059      C2066   1.518       .  S
C2060      C2061   1.409       .  A
C2060      H2065   1.083       .  S
C2061      C2062   1.419       .  A
C2062      C2063   1.522       .  S
C2063      F2067   1.385       .  S
C2063      F2068   1.383       .  S
C2063      F2069   1.382       .  S
C2066      F2070   1.382       .  S
C2066      F2071   1.382       .  S
C2066      F2072   1.385       .  S
C2073      C2074   1.414       .  A
C2073      C2078   1.419       .  A
C2073      H2080   1.082       .  S
C2074      C2075   1.424       .  A
C2075      C2076   1.422       .  A
C2075      C2082   1.518       .  S
C2076      C2077   1.415       .  A
C2076      H2081   1.082       .  S
C2077      C2078   1.424       .  A
C2078      C2079   1.520       .  S
C2079      F2083   1.385       .  S
C2079      F2084   1.382       .  S
C2079      F2085   1.382       .  S
C2082      F2086   1.384       .  S
C2082      F2087   1.383       .  S
C2082      F2088   1.385       .  S
C2089      C2090   1.401       .  A
C2089      C2094   1.413       .  A
C2089      H2096   1.083       .  S
C2090      C2091   1.420       .  A
C2091      C2092   1.411       .  A
C2091      C2098   1.516       .  S
C2092      C2093   1.401       .  A
C2092      H2097   1.084       .  S
C2093      C2094   1.422       .  A
C2094      C2095   1.517       .  S
C2095      F2099   1.385       .  S
C2095      F2100   1.381       .  S
C2095      F2101   1.378       .  S
C2098      F2102   1.382       .  S
C2098      F2103   1.383       .  S
C2098      F2104   1.384       .  S
C2105      C2106   1.399       .  A
C2105      C2110   1.409       .  A
C2105      H2112   1.082       .  S
C2106      C2107   1.423       .  A
C2107      C2108   1.420       .  A
C2107      C2114   1.516       .  S
C2108      C2109   1.408       .  A
C2108      H2113   1.085       .  S
C2109      C2110   1.427       .  A
C2110      C2111   1.518       .  S
C2111      F2115   1.384       .  S
C2111      F2116   1.374       .  S
C2111      F2117   1.383       .  S
C2114      F2118   1.382       .  S
C2114      F2119   1.383       .  S
C2114      F2120   1.383       .  S
C2121      C2122   1.420       .  A
C2121      C2126   1.421       .  A
C2121      H2128   1.082       .  S
C2122      C2123   1.416       .  A
C2123      C2124   1.421       .  A
C2123      C2130   1.517       .  S
C2124      C2125   1.422       .  A
C2124      H2129   1.081       .  S
C2125      C2126   1.418       .  A
C2126      C2127   1.518       .  S
C2127      F2131   1.385       .  S
C2127      F2132   1.382       .  S
C2127      F2133   1.384       .  S
C2130      F2134   1.383       .  S
C2130      F2135   1.384       .  S
C2130      F2136   1.384       .  S
C2137      C2138   1.404       .  A
C2137      C2142   1.412       .  A
C2137      H2144   1.084       .  S
C2138      C2139   1.424   1_554  A
C2139      C2140   1.413   1_556  A
C2139      C2146   1.519       .  S
C2140      C2141   1.404       .  A
C2140      H2145   1.084   1_554  S
C2141      C2142   1.416       .  A
C2142      C2143   1.505       .  S
C2143      F2147   1.383       .  S
C2143      F2148   1.382       .  S
C2143      F2149   1.383       .  S
C2146      F2150   1.382       .  S
C2146      F2151   1.383       .  S
C2146      F2152   1.385       .  S
C2153      C2154   1.401       .  A
C2153      C2158   1.414       .  A
C2153      H2160   1.083       .  S
C2154      C2155   1.422       .  A
C2155      C2156   1.411       .  A
C2155      C2162   1.516       .  S
C2156      C2157   1.402       .  A
C2156      H2161   1.085       .  S
C2157      C2158   1.422       .  A
C2158      C2159   1.514   1_556  S
C2159      F2163   1.385       .  S
C2159      F2164   1.377       .  S
C2159      F2165   1.381       .  S
C2162      F2166   1.384       .  S
C2162      F2167   1.383       .  S
C2162      F2168   1.384       .  S
C2169      C2170   1.403       .  A
C2169      C2174   1.403       .  A
C2169      H2176   1.083       .  S
C2170      C2171   1.411       .  A
C2171      C2172   1.406       .  A
C2171      C2178   1.520       .  S
C2172      C2173   1.414       .  A
C2172      H2177   1.082       .  S
C2173      C2174   1.423       .  A
C2174      C2175   1.522       .  S
C2175      F2179   1.385       .  S
C2175      F2180   1.383       .  S
C2175      F2181   1.384       .  S
C2178      F2182   1.382   1_554  S
C2178      F2183   1.384   1_554  S
C2178      F2184   1.385       .  S
C2185      C2186   1.419       .  A
C2185      C2190   1.416       .  A
C2185      H2192   1.082       .  S
C2186      C2187   1.413       .  A
C2187      C2188   1.417       .  A
C2187      C2194   1.518       .  S
C2188      C2189   1.420       .  A
C2188      H2193   1.082       .  S
C2189      C2190   1.413       .  A
C2190      C2191   1.518       .  S
C2191      F2195   1.385       .  S
C2191      F2196   1.383       .  S
C2191      F2197   1.382       .  S
C2194      F2198   1.381       .  S
C2194      F2199   1.384       .  S
C2194      F2200   1.385       .  S
C2201      C2202   1.406       .  A
C2201      C2206   1.388       .  A
C2201      H2208   1.081       .  S
C2202      C2203   1.425       .  A
C2203      C2204   1.410       .  A
C2203      C2210   1.520       .  S
C2204      C2205   1.403       .  A
C2204      H2209   1.083       .  S
C2205      C2206   1.416       .  A
C2206      C2207   1.525       .  S
C2207      F2211   1.385       .  S
C2207      F2212   1.383       .  S
C2207      F2213   1.382       .  S
C2210      F2214   1.383       .  S
C2210      F2215   1.380       .  S
C2210      F2216   1.384       .  S
C2217      C2218   1.407       .  A
C2217      C2222   1.416       .  A
C2217      H2224   1.083       .  S
C2218      C2219   1.428       .  A
C2219      C2220   1.408       .  A
C2219      C2226   1.521       .  S
C2220      C2221   1.399       .  A
C2220      H2225   1.084       .  S
C2221      C2222   1.414       .  A
C2222      C2223   1.511       .  S
C2223      F2227   1.384       .  S
C2223      F2228   1.383       .  S
C2223      F2229   1.383       .  S
C2226      F2230   1.383       .  S
C2226      F2231   1.379       .  S
C2226      F2232   1.385       .  S
C2233      C2234   1.407       .  A
C2233      C2238   1.417       .  A
C2233      H2240   1.081       .  S
C2234      C2235   1.413       .  A
C2235      C2236   1.412       .  A
C2235      C2242   1.516       .  S
C2236      C2237   1.410       .  A
C2236      H2241   1.084       .  S
C2237      C2238   1.416       .  A
C2238      C2239   1.513       .  S
C2239      F2243   1.385       .  S
C2239      F2244   1.382       .  S
C2239      F2245   1.383       .  S
C2242      F2246   1.383       .  S
C2242      F2247   1.381       .  S
C2242      F2248   1.384       .  S
C2249      C2250   1.419   1_655  A
C2249      C2254   1.418       .  A
C2249      H2256   1.082       .  S
C2250      C2251   1.416       .  A
C2251      C2252   1.417       .  A
C2251      C2258   1.518       .  S
C2252      C2253   1.419   1_455  A
C2252      H2257   1.082       .  S
C2253      C2254   1.416       .  A
C2254      C2255   1.518       .  S
C2255      F2259   1.385       .  S
C2255      F2260   1.384       .  S
C2255      F2261   1.383       .  S
C2258      F2262   1.381       .  S
C2258      F2263   1.383       .  S
C2258      F2264   1.385       .  S
C2265      C2266   1.401       .  A
C2265      C2270   1.411       .  A
C2265      H2272   1.084       .  S
C2266      C2267   1.420       .  A
C2267      C2268   1.415       .  A
C2267      C2274   1.517       .  S
C2268      C2269   1.403       .  A
C2268      H2273   1.084       .  S
C2269      C2270   1.421       .  A
C2270      C2271   1.517       .  S
C2271      F2275   1.385       .  S
C2271      F2276   1.382       .  S
C2271      F2277   1.384       .  S
C2274      F2278   1.382       .  S
C2274      F2279   1.382       .  S
C2274      F2280   1.385       .  S
C2281      C2282   1.402       .  A
C2281      C2286   1.414       .  A
C2281      H2288   1.084       .  S
C2282      C2283   1.426       .  A
C2283      C2284   1.408       .  A
C2283      C2290   1.519       .  S
C2284      C2285   1.400       .  A
C2284      H2289   1.084       .  S
C2285      C2286   1.420       .  A
C2286      C2287   1.507       .  S
C2287      F2291   1.383       .  S
C2287      F2292   1.382       .  S
C2287      F2293   1.382       .  S
C2290      F2294   1.380       .  S
C2290      F2295   1.382       .  S
C2290      F2296   1.385       .  S
C2297      C2298   1.415       .  A
C2297      C2302   1.393       .  A
C2297      H2304   1.082       .  S
C2298      C2299   1.413       .  A
C2299      C2300   1.413       .  A
C2299      C2306   1.516       .  S
C2300      C2301   1.413       .  A
C2300      H2305   1.084       .  S
C2301      C2302   1.406       .  A
C2302      C2303   1.521   1_556  S
C2303      F2307   1.385       .  S
C2303      F2308   1.380   1_655  S
C2303      F2309   1.382       .  S
C2306      F2310   1.383       .  S
C2306      F2311   1.384       .  S
C2306      F2312   1.385       .  S
C2313      C2314   1.410       .  A
C2313      C2318   1.407       .  A
C2313      H2320   1.082       .  S
C2314      C2315   1.424   1_655  A
C2315      C2316   1.403       .  A
C2315      C2322   1.525       .  S
C2316      C2317   1.407       .  A
C2316      H2321   1.082       .  S
C2317      C2318   1.416   1_455  A
C2318      C2319   1.519       .  S
C2319      F2323   1.385       .  S
C2319      F2324   1.382       .  S
C2319      F2325   1.383       .  S
C2322      F2326   1.383       .  S
C2322      F2327   1.384       .  S
C2322      F2328   1.385       .  S
C2329      C2330   1.418   1_455  A
C2329      C2334   1.418   1_556  A
C2329      H2336   1.082       .  S
C2330      C2331   1.412   1_556  A
C2331      C2332   1.419       .  A
C2331      C2338   1.516       .  S
C2332      C2333   1.422   1_655  A
C2332      H2337   1.082       .  S
C2333      C2334   1.416       .  A
C2334      C2335   1.517       .  S
C2335      F2339   1.385   1_554  S
C2335      F2340   1.383       .  S
C2335      F2341   1.379   1_554  S
C2338      F2342   1.383       .  S
C2338      F2343   1.383   1_554  S
C2338      F2344   1.385       .  S
C2345      C2346   1.409   1_455  A
C2345      C2350   1.395       .  A
C2345      H2352   1.081       .  S
C2346      C2347   1.426       .  A
C2347      C2348   1.411   1_655  A
C2347      C2354   1.519       .  S
C2348      C2349   1.400       .  A
C2348      H2353   1.083       .  S
C2349      C2350   1.409       .  A
C2350      C2351   1.520       .  S
C2351      F2355   1.378       .  S
C2351      F2356   1.382       .  S
C2351      F2357   1.382       .  S
C2354      F2358   1.383       .  S
C2354      F2359   1.383       .  S
C2354      F2360   1.383       .  S
C2361      C2362   1.407       .  A
C2361      C2366   1.418       .  A
C2361      H2368   1.083       .  S
C2362      C2363   1.424       .  A
C2363      C2364   1.412       .  A
C2363      C2370   1.516       .  S
C2364      C2365   1.399       .  A
C2364      H2369   1.084       .  S
C2365      C2366   1.416       .  A
C2366      C2367   1.516       .  S
C2367      F2371   1.384       .  S
C2367      F2372   1.383       .  S
C2367      F2373   1.384       .  S
C2370      F2374   1.380       .  S
C2370      F2375   1.381       .  S
C2370      F2376   1.385       .  S
C2377      C2378   1.399       .  A
C2377      C2382   1.413       .  A
C2377      H2384   1.083       .  S
C2378      C2379   1.410       .  A
C2379      C2380   1.413       .  A
C2379      C2386   1.507       .  S
C2380      C2381   1.409       .  A
C2380      H2385   1.082       .  S
C2381      C2382   1.436       .  A
C2382      C2383   1.524       .  S
C2383      F2387   1.385       .  S
C2383      F2388   1.381       .  S
C2383      F2389   1.383       .  S
C2386      F2390   1.383       .  S
C2386      F2391   1.384       .  S
C2386      F2392   1.384       .  S
C2393      C2394   1.407       .  A
C2393      C2398   1.423       .  A
C2393      H2400   1.083       .  S
C2394      C2395   1.430       .  A
C2395      C2396   1.423       .  A
C2395      C2402   1.520       .  S
C2396      C2397   1.406       .  A
C2396      H2401   1.083       .  S
C2397      C2398   1.429       .  A
C2398      C2399   1.520       .  S
C2399      F2403   1.385       .  S
C2399      F2404   1.382       .  S
C2399      F2405   1.384       .  S
C2402      F2406   1.383       .  S
C2402      F2407   1.383       .  S
C2402      F2408   1.385       .  S
C2409      C2410   1.415       .  A
C2409      C2414   1.407       .  A
C2409      H2416   1.083       .  S
C2410      C2411   1.411       .  A
C2411      C2412   1.411       .  A
C2411      C2418   1.514       .  S
C2412      C2413   1.415       .  A
C2412      H2417   1.084       .  S
C2413      C2414   1.410       .  A
C2414      C2415   1.516       .  S
C2415      F2419   1.385       .  S
C2415      F2420   1.383       .  S
C2415      F2421   1.383       .  S
C2418      F2422   1.382       .  S
C2418      F2423   1.384       .  S
C2418      F2424   1.384       .  S
C2425      C2426   1.390       .  A
C2425      C2430   1.395       .  A
C2425      H2432   1.084       .  S
C2426      C2427   1.419       .  A
C2427      C2428   1.399       .  A
C2427      C2434   1.514       .  S
C2428      C2429   1.396       .  A
C2428      H2433   1.086       .  S
C2429      C2430   1.421       .  A
C2430      C2431   1.510       .  S
C2431      F2435   1.381       .  S
C2431      F2436   1.378   1_554  S
C2431      F2437   1.379       .  S
C2434      F2438   1.384       .  S
C2434      F2439   1.378       .  S
C2434      F2440   1.383       .  S
C2441      C2442   1.407       .  A
C2441      C2446   1.414       .  A
C2441      H2448   1.083       .  S
C2442      C2443   1.425       .  A
C2443      C2444   1.409       .  A
C2443      C2450   1.519       .  S
C2444      C2445   1.400       .  A
C2444      H2449   1.084       .  S
C2445      C2446   1.415       .  A
C2446      C2447   1.515       .  S
C2447      F2451   1.383       .  S
C2447      F2452   1.384       .  S
C2447      F2453   1.383       .  S
C2450      F2454   1.382       .  S
C2450      F2455   1.378       .  S
C2450      F2456   1.385       .  S
C2457      C2458   1.404       .  A
C2457      C2462   1.416       .  A
C2457      H2464   1.083       .  S
C2458      C2459   1.410       .  A
C2459      C2460   1.405       .  A
C2459      C2466   1.516       .  S
C2460      C2461   1.408       .  A
C2460      H2465   1.078       .  S
C2461      C2462   1.419       .  A
C2462      C2463   1.512       .  S
C2463      F2467   1.381       .  S
C2463      F2468   1.381       .  S
C2463      F2469   1.385       .  S
C2466      F2470   1.384       .  S
C2466      F2471   1.380       .  S
C2466      F2472   1.385       .  S
C2473      C2474   1.404       .  A
C2473      C2478   1.401       .  A
C2473      H2480   1.084       .  S
C2474      C2475   1.408       .  A
C2475      C2476   1.401       .  A
C2475      C2482   1.519       .  S
C2476      C2477   1.411       .  A
C2476      H2481   1.083       .  S
C2477      C2478   1.418       .  A
C2478      C2479   1.522       .  S
C2479      F2483   1.385       .  S
C2479      F2484   1.383       .  S
C2479      F2485   1.382       .  S
C2482      F2486   1.383       .  S
C2482      F2487   1.383       .  S
C2482      F2488   1.384       .  S
C2489      C2490   1.415       .  A
C2489      C2494   1.403   1_655  A
C2489      H2496   1.081       .  S
C2490      C2491   1.410       .  A
C2491      C2492   1.411   1_655  A
C2491      C2498   1.517       .  S
C2492      C2493   1.415       .  A
C2492      H2497   1.083       .  S
C2493      C2494   1.408       .  A
C2494      C2495   1.518       .  S
C2495      F2499   1.385   1_455  S
C2495      F2500   1.383       .  S
C2495      F2501   1.383       .  S
C2498      F2502   1.383       .  S
C2498      F2503   1.383       .  S
C2498      F2504   1.385   1_655  S
C2505      C2506   1.416       .  A
C2505      C2510   1.417       .  A
C2505      H2512   1.081       .  S
C2506      C2507   1.424       .  A
C2507      C2508   1.425       .  A
C2507      C2514   1.518       .  S
C2508      C2509   1.417       .  A
C2508      H2513   1.082       .  S
C2509      C2510   1.422       .  A
C2510      C2511   1.518       .  S
C2511      F2515   1.385       .  S
C2511      F2516   1.383       .  S
C2511      F2517   1.380       .  S
C2514      F2518   1.385       .  S
C2514      F2519   1.380       .  S
C2514      F2520   1.383       .  S
