geometry optimzed in LAMMPS
_audit_creation_date              2020-12-01 
_audit_creation_method            'lammps2cif' 
_symmetry_space_group_name_H-M    'P1' 
_symmetry_Int_Tables_number       1 
_symmetry_cell_setting            triclinic 
loop_ 
_symmetry_equiv_pos_as_xyz 
  x,y,z 
_cell_length_a                    55.77388448 
_cell_length_b                    55.88240936538205 
_cell_length_c                    45.979995255947 
_cell_angle_alpha                 89.98803736334199 
_cell_angle_beta                  90.00218531458981 
_cell_angle_gamma                 120.58046564057578 
loop_ 
_atom_site_label 
_atom_site_type_symbol 
_atom_site_fract_x 
_atom_site_fract_y 
_atom_site_fract_z 
_atom_site_charge 
Fe1        Fe  0.31731920  0.88303617  0.24657554     1.65800
Fe2        Fe  0.38166136  0.89886347  0.22363248     1.73200
Fe3        Fe  0.34629994  0.84608131  0.27107382     1.54400
O4          O  0.32494021  0.85228869  0.30418979    -0.82200
O5          O  0.38214438  0.86525066  0.20570634    -0.80500
O6          O  0.31927874  0.88739673  0.29084340    -0.84700
O7          O  0.28755379  0.84100153  0.24888136    -0.79500
O8          O  0.38310149  0.87320151  0.29193486    -0.81300
O9          O  0.35841338  0.89834904  0.18837084    -0.84100
C10         C  0.28756232  0.81828422  0.24763978     0.96700
C11         C  0.32078690  0.87205644  0.31010616     1.04100
O12         O  0.34845219  0.87591879  0.24684866    -1.13000
O13         O  0.38525382  0.93461738  0.23984570    -0.75500
O14         O  0.34203784  0.92621802  0.24466790    -0.79000
O15         O  0.30954427  0.81718973  0.25160861    -0.79700
C16         C  0.36819470  0.94260630  0.24542685     0.95600
O17         O  0.31397313  0.87948596  0.20210931    -0.77600
O18         O  0.40875594  0.90177930  0.25612688    -0.82800
C19         C  0.38062972  0.84436503  0.21844182     0.98200
C20         C  0.40635329  0.89179136  0.28150239     1.04100
O21         O  0.36830159  0.83550145  0.24262273    -0.78500
C22         C  0.33268014  0.88802140  0.18267356     1.02400
Fe23       Fe  0.31864445  0.88374252  0.49610083     1.65800
Fe24       Fe  0.38213256  0.89808853  0.47258355     1.73200
Fe25       Fe  0.34546123  0.84524896  0.02143477     1.54400
O26         O  0.32374959  0.85189095  0.05417387    -0.82200
O27         O  0.38004935  0.86349466  0.45424446    -0.80500
O28         O  0.32087266  0.88874075  0.04105345    -0.84700
O29         O  0.28838820  0.84197368  0.49956200    -0.79500
O30         O  0.38202124  0.87164381  0.04316405    -0.81300
O31         O  0.35903548  0.89897509  0.43786120    -0.84100
C32         C  0.28812491  0.81917496  0.49732038     0.96700
C33         C  0.32096210  0.87253627  0.06026771     1.04100
O34         O  0.34919287  0.87607046  0.49630567    -1.13000
O35         O  0.38752031  0.93440401  0.48927419    -0.75500
O36         O  0.34428419  0.92662229  0.49237963    -0.79000
O37         O  0.30870152  0.81727260  0.00101689    -0.79700
C38         C  0.37069448  0.94258461  0.99552927     0.95600
O39         O  0.31457995  0.87893218  0.45178952    -0.77600
O40         O  0.40861193  0.89880685  0.00702937    -0.82800
C41         C  0.37939387  0.84318994  0.46733683     0.98200
C42         C  0.40568481  0.88923645  0.03269065     1.04100
O43         O  0.36854090  0.83537731  0.49234878    -0.78500
C44         C  0.33321044  0.88797223  0.43225719     1.02400
Fe45       Fe  0.43308697  0.11746085  0.01487520     1.65800
Fe46       Fe  0.48478605  0.10777567  0.03940334     1.73200
Fe47       Fe  0.49895838  0.15708339  0.48990094     1.54400
O48         O  0.46981072  0.14992116  0.45788726    -0.82200
O49         O  0.51572730  0.14379416  0.05790438    -0.80500
O50         O  0.43055557  0.11169819  0.47037107    -0.84700
O51         O  0.44330185  0.15909432  0.01226432    -0.79500
O52         O  0.50839496  0.13092033  0.46828304    -0.81300
O53         O  0.45976889  0.10458740  0.07395930    -0.84100
C54         C  0.46577876  0.18241314  0.01565761     0.96700
C55         C  0.44638715  0.12897246  0.45139240     1.04100
O56         O  0.47207599  0.12777155  0.01557882    -1.13000
O57         O  0.45503615  0.07010354  0.02347429    -0.75500
O58         O  0.41804214  0.07486300  0.01755739    -0.79000
O59         O  0.48974934  0.18508946  0.01342505    -0.79700
C60         C  0.42927218  0.05997357  0.01896498     0.95600
O61         O  0.43237784  0.12079634  0.05961001    -0.77600
O62         O  0.51061441  0.10613438  0.50517203    -0.82800
C63         C  0.53587247  0.16308757  0.04408616     0.98200
C64         C  0.51554954  0.11449913  0.47887977     1.04100
O65         O  0.53283803  0.16976953  0.01859257    -0.78500
C66         C  0.44300090  0.11310320  0.07933764     1.02400
Fe67       Fe  0.43407252  0.11851714  0.26558790     1.65800
Fe68       Fe  0.48544526  0.10767918  0.28814594     1.73200
Fe69       Fe  0.49980028  0.15847364  0.23989644     1.54400
O70         O  0.47087493  0.15000024  0.20722570    -0.82200
O71         O  0.51707022  0.14328308  0.30654082    -0.80500
O72         O  0.43110036  0.11289264  0.22133704    -0.84700
O73         O  0.44439283  0.16004200  0.26196433    -0.79500
O74         O  0.51061274  0.13274760  0.21910690    -0.81300
O75         O  0.46049613  0.10455009  0.32311738    -0.84100
C76         C  0.46697604  0.18347095  0.26314125     0.96700
C77         C  0.44724086  0.12886711  0.20170317     1.04100
O78         O  0.47311904  0.12826969  0.26470786    -1.13000
O79         O  0.45512330  0.07071754  0.27146121    -0.75500
O80         O  0.41810769  0.07563947  0.26960410    -0.79000
O81         O  0.49063467  0.18585527  0.25927491    -0.79700
C82         C  0.42910003  0.06047965  0.26933808     0.95600
O83         O  0.43490090  0.12310516  0.30999162    -0.77600
O84         O  0.51223215  0.10808149  0.25628646    -0.82800
C85         C  0.53661191  0.16394843  0.29336356     0.98200
C86         C  0.51819359  0.11682771  0.23023980     1.04100
O87         O  0.53333241  0.17119678  0.26818729    -0.78500
C88         C  0.44441823  0.11377316  0.32913685     1.02400
Fe89       Fe  0.68715929  0.12133789  0.12049733     1.65800
Fe90       Fe  0.62335200  0.10658807  0.09832326     1.73200
Fe91       Fe  0.66003803  0.15931863  0.14484012     1.54400
O92         O  0.68205069  0.15274256  0.17736951    -0.82200
O93         O  0.62494118  0.14060252  0.07948679    -0.80500
O94         O  0.68366264  0.11507227  0.16498816    -0.84700
O95         O  0.71794497  0.16323237  0.12482610    -0.79500
O96         O  0.62394186  0.13312707  0.16681454    -0.81300
O97         O  0.64600152  0.10537053  0.06305233    -0.84100
C98         C  0.71808080  0.18583796  0.12078482     0.96700
C99         C  0.68406660  0.13173349  0.18403506     1.04100
O100        O  0.65667709  0.12899258  0.12110631    -1.13000
O101        O  0.61855049  0.07062712  0.11505674    -0.75500
O102        O  0.66167919  0.07839487  0.11535947    -0.79000
O103        O  0.69606484  0.18703823  0.12359100    -0.79700
C104        C  0.63551371  0.06194379  0.11649447     0.95600
O105        O  0.69088457  0.12720712  0.07618795    -0.77600
O106        O  0.59693266  0.10578169  0.13095130    -0.82800
C107        C  0.62634143  0.16150213  0.09184053     0.98200
C108        C  0.60015133  0.11577933  0.15651687     1.04100
O109        O  0.63749535  0.16981815  0.11669432    -0.78500
C110        C  0.67186873  0.11777250  0.05697262     1.02400
Fe111      Fe  0.68658121  0.12336482  0.37120993     1.65800
Fe112      Fe  0.62291503  0.11020172  0.34958501     1.73200
Fe113      Fe  0.65939816  0.16074355  0.39835686     1.54400
O114        O  0.68228407  0.15471927  0.42989394    -0.82200
O115        O  0.62569735  0.14553211  0.33226738    -0.80500
O116        O  0.68565659  0.11861633  0.41581349    -0.84700
O117        O  0.71696219  0.16568978  0.37341415    -0.79500
O118        O  0.62393378  0.13291793  0.41998616    -0.81300
O119        O  0.64456743  0.10866591  0.31372086    -0.84100
C120        C  0.71685750  0.18852322  0.37295708     0.96700
C121        C  0.68562317  0.13440035  0.43555811     1.04100
O122        O  0.65639537  0.13147249  0.37275299    -1.13000
O123        O  0.61716077  0.07344844  0.36535250    -0.75500
O124        O  0.65993617  0.08020378  0.36933693    -0.79000
O125        O  0.69501119  0.18951927  0.37787336    -0.79700
C126        C  0.63355913  0.06456332  0.37052002     0.95600
O127        O  0.68911402  0.12672620  0.32623718    -0.77600
O128        O  0.59687153  0.10889992  0.38268692    -0.82800
C129        C  0.62552854  0.16480481  0.34663698     0.98200
C130        C  0.60019188  0.11629996  0.40927333     1.04100
O131        O  0.63608891  0.17156931  0.37187895    -0.78500
C132        C  0.66987975  0.11757449  0.30723282     1.02400
Fe133      Fe  0.57244859  0.88616403  0.13680798     1.65800
Fe134      Fe  0.52175836  0.89756607  0.16194356     1.73200
Fe135      Fe  0.50586454  0.84661013  0.11308578     1.54400
O136        O  0.53346818  0.85441980  0.07919279    -0.82200
O137        O  0.48977550  0.86219232  0.18057784    -0.80500
O138        O  0.57439448  0.89018982  0.09246323    -0.84700
O139        O  0.56151648  0.84451164  0.13485500    -0.79500
O140        O  0.49522779  0.87301507  0.09338213    -0.81300
O141        O  0.54695539  0.90001984  0.19607060    -0.84100
C142        C  0.53889114  0.82113294  0.13583690     0.96700
C143        C  0.55761080  0.87449408  0.07317000     1.04100
O144        O  0.53336892  0.87670288  0.13750269    -1.13000
O145        O  0.55200686  0.93431939  0.14505057    -0.75500
O146        O  0.58851074  0.92902789  0.13817356    -0.79000
O147        O  0.51521730  0.81871102  0.13146362    -0.79700
C148        C  0.57717671  0.94385026  0.13805065     0.95600
O149        O  0.57368104  0.88326529  0.18125431    -0.77600
O150        O  0.49493882  0.89808072  0.13090828    -0.82800
C151        C  0.46977339  0.84222185  0.16709406     0.98200
C152        C  0.48859052  0.88955737  0.10486801     1.04100
O153        O  0.47296701  0.83452884  0.14212327    -0.78500
C154        C  0.56387018  0.89163531  0.20101466     1.02400
Fe155      Fe  0.57173782  0.88742076  0.38628308     1.65800
Fe156      Fe  0.52070863  0.89831879  0.41138385     1.73200
Fe157      Fe  0.50566408  0.84878751  0.36115548     1.54400
O158        O  0.53408320  0.85664515  0.32845654    -0.82200
O159        O  0.48788644  0.86243792  0.42822686    -0.80500
O160        O  0.57463927  0.89281985  0.34184089    -0.84700
O161        O  0.56056905  0.84562516  0.38249255    -0.79500
O162        O  0.49609181  0.87598496  0.34145820    -0.81300
O163        O  0.54446467  0.89870475  0.44613017    -0.84100
C164        C  0.53779304  0.82231612  0.38311792     0.96700
C165        C  0.55841235  0.87631370  0.32259083     1.04100
O166        O  0.53276429  0.87822930  0.38643653    -1.13000
O167        O  0.55192758  0.93597972  0.39704170    -0.75500
O168        O  0.58818320  0.93041083  0.38988089    -0.79000
O169        O  0.51421907  0.82039852  0.37963000    -0.79700
C170        C  0.57757174  0.94584405  0.39183363     0.95600
O171        O  0.57178496  0.88277917  0.43082012    -0.77600
O172        O  0.49528964  0.90035034  0.37947841    -0.82800
C173        C  0.46814798  0.84295999  0.41401876     0.98200
C174        C  0.48939488  0.89240516  0.35317071     1.04100
O175        O  0.47178632  0.83622554  0.38878431    -0.78500
C176        C  0.56114607  0.88995770  0.45093859     1.02400
Fe177      Fe  0.68621323  0.56965779  0.17667320     1.65800
Fe178      Fe  0.62181924  0.52092402  0.19931262     1.73200
Fe179      Fe  0.65760251  0.50273256  0.15392853     1.54400
O180        O  0.67840011  0.52946642  0.11979017    -0.82200
O181        O  0.62281907  0.48876664  0.21952217    -0.80500
O182        O  0.68459263  0.57082361  0.13197319    -0.84700
O183        O  0.71624729  0.55803068  0.17560984    -0.79500
O184        O  0.62089824  0.49153417  0.13268022    -0.81300
O185        O  0.64406433  0.54576095  0.23398306    -0.84100
C186        C  0.71628972  0.53532548  0.17718134     0.96700
C187        C  0.68266943  0.55336060  0.11311790     1.04100
O188        O  0.65525539  0.53104394  0.17682559    -1.13000
O189        O  0.61757214  0.55172076  0.18071309    -0.75500
O190        O  0.66100013  0.58726379  0.17733525    -0.79000
O191        O  0.69441325  0.51187202  0.17335925    -0.79700
C192        C  0.63484280  0.57710717  0.17581658     0.95600
O193        O  0.68890223  0.57047143  0.22160336    -0.77600
O194        O  0.59498674  0.49439972  0.16786390    -0.82800
C195        C  0.62531481  0.46926716  0.20881541     0.98200
C196        C  0.59760567  0.48642990  0.14284787     1.04100
O197        O  0.63638444  0.47120860  0.18413972    -0.78500
C198        C  0.66956213  0.56128538  0.24050498     1.02400
Fe199      Fe  0.68504448  0.56876517  0.42709393     1.65800
Fe200      Fe  0.62120425  0.51784570  0.44985610     1.73200
Fe201      Fe  0.65794540  0.50334088  0.40158023     1.54400
O202        O  0.67876647  0.53181309  0.36873672    -0.82200
O203        O  0.62277847  0.48469534  0.46701806    -0.80500
O204        O  0.68285098  0.57185309  0.38253842    -0.84700
O205        O  0.71606607  0.55815064  0.42401553    -0.79500
O206        O  0.62141436  0.49292901  0.38104753    -0.81300
O207        O  0.64380384  0.54058219  0.48547736    -0.84100
C208        C  0.71650589  0.53553559  0.42452173     0.96700
C209        C  0.68233120  0.55559841  0.36298358     1.04100
O210        O  0.65465904  0.52996166  0.42635980    -1.13000
O211        O  0.61577910  0.54950011  0.43536904    -0.75500
O212        O  0.65887325  0.58524509  0.43008216    -0.79000
O213        O  0.69466208  0.51209658  0.42081190    -0.79700
C214        C  0.63266262  0.57509625  0.43090001     0.95600
O215        O  0.68823318  0.56756778  0.47178585    -0.77600
O216        O  0.59459973  0.49313424  0.41694662    -0.82800
C217        C  0.62467738  0.46584226  0.45381693     0.98200
C218        C  0.59787719  0.48704400  0.39114766     1.04100
O219        O  0.63658918  0.46986440  0.42936501    -0.78500
C220        C  0.66951427  0.55617342  0.49122609     1.02400
Fe221      Fe  0.43338182  0.31570052  0.03400899     1.65800
Fe222      Fe  0.48426638  0.37932628  0.01173001     1.73200
Fe223      Fe  0.49906312  0.34375598  0.06056809     1.54400
O224        O  0.47030596  0.32211880  0.09293550    -0.82200
O225        O  0.51669953  0.37674305  0.99408703    -0.80500
O226        O  0.43002557  0.31724518  0.07847003    -0.84700
O227        O  0.44486088  0.28548113  0.03674836    -0.79500
O228        O  0.50818774  0.38001274  0.08118898    -0.81300
O229        O  0.45915724  0.35685471  0.47664175    -0.84100
C230        C  0.46769576  0.28537879  0.03738229     0.96700
C231        C  0.44630015  0.31827840  0.09827550     1.04100
O232        O  0.47222711  0.34613026  0.03516202    -1.13000
O233        O  0.45330149  0.38477530  0.02796408    -0.75500
O234        O  0.41680505  0.34183217  0.03165927    -0.79000
O235        O  0.49110021  0.30725133  0.04157874    -0.79700
C236        C  0.42767383  0.36809521  0.03266071     0.95600
O237        O  0.43422914  0.31207483  0.48914000    -0.77600
O238        O  0.50990887  0.40620381  0.04389512    -0.82800
C239        C  0.53641336  0.37688264  0.00795296     0.98200
C240        C  0.51522084  0.40353909  0.07015100     1.04100
O241        O  0.53294523  0.36613354  0.03304257    -0.78500
C242        C  0.44386638  0.33128654  0.47020325     1.02400
Fe243      Fe  0.43382731  0.31678166  0.28459401     1.65800
Fe244      Fe  0.48542264  0.37949212  0.26139576     1.73200
Fe245      Fe  0.49897592  0.34307719  0.30994995     1.54400
O246        O  0.46970658  0.31851731  0.34065936    -0.82200
O247        O  0.51745287  0.37575455  0.24435938    -0.80500
O248        O  0.43148204  0.31895889  0.32911822    -0.84700
O249        O  0.44533258  0.28624707  0.28666829    -0.79500
O250        O  0.50651600  0.37780608  0.33241744    -0.81300
O251        O  0.46174572  0.35747321  0.22576453    -0.84100
C252        C  0.46838825  0.28660776  0.28400048     0.96700
C253        C  0.44711158  0.31705106  0.34777466     1.04100
O254        O  0.47258185  0.34648806  0.28501043    -1.13000
O255        O  0.45463480  0.38614570  0.27587438    -0.75500
O256        O  0.41804092  0.34365842  0.28211210    -0.79000
O257        O  0.49184090  0.30849741  0.28778331    -0.79700
C258        C  0.42886072  0.36992074  0.28021337     0.95600
O259        O  0.43369898  0.31353577  0.24003453    -0.77600
O260        O  0.51052315  0.40508352  0.29493031    -0.82800
C261        C  0.53727516  0.37710760  0.25903151     0.98200
C262        C  0.51440398  0.40159865  0.32160113     1.04100
O263        O  0.53372294  0.36759586  0.28462779    -0.78500
C264        C  0.44462958  0.33198327  0.22037428     1.02400
Fe265      Fe  0.57136588  0.68814778  0.15880074     1.65800
Fe266      Fe  0.51954876  0.62560768  0.13694980     1.73200
Fe267      Fe  0.50683516  0.66190064  0.18579184     1.54400
O268        O  0.53725502  0.68523862  0.21654625    -0.82200
O269        O  0.48901346  0.63096270  0.11927962    -0.80500
O270        O  0.57526044  0.68490378  0.20302081    -0.84700
O271        O  0.56081116  0.71909258  0.16361517    -0.79500
O272        O  0.49848655  0.62664726  0.20773047    -0.81300
O273        O  0.54425175  0.64740986  0.10154778    -0.84100
C274        C  0.53789279  0.71880787  0.16039665     0.96700
C275        C  0.55979679  0.68585475  0.22264354     1.04100
O276        O  0.53271453  0.65848284  0.16046523    -1.13000
O277        O  0.54932981  0.61847566  0.15299772    -0.75500
O278        O  0.58667824  0.66099139  0.15330574    -0.79000
O279        O  0.51439327  0.69700757  0.16421002    -0.79700
C280        C  0.57542615  0.63460317  0.15406554     0.95600
O281        O  0.56867256  0.69206721  0.11457178    -0.77600
O282        O  0.49273394  0.59965488  0.16958465    -0.82800
C283        C  0.46884679  0.62909866  0.13364736     0.98200
C284        C  0.48885588  0.60281617  0.19634469     1.04100
O285        O  0.47193133  0.63804441  0.15959807    -0.78500
C286        C  0.55871446  0.67313936  0.09535401     1.02400
Fe287      Fe  0.57033578  0.68840410  0.40946344     1.65800
Fe288      Fe  0.52000220  0.62457961  0.38713320     1.73200
Fe289      Fe  0.50419926  0.66159412  0.43261828     1.54400
O290        O  0.53206817  0.68466049  0.46544863    -0.82200
O291        O  0.48913270  0.62790485  0.36679042    -0.80500
O292        O  0.57199701  0.68724180  0.45414083    -0.84700
O293        O  0.55915582  0.71928987  0.40986541    -0.79500
O294        O  0.49432783  0.62628202  0.45549331    -0.81300
O295        O  0.54562143  0.64606010  0.35193753    -0.84100
C296        C  0.53612193  0.71894688  0.40733308     0.96700
C297        C  0.55537101  0.68759852  0.47268227     1.04100
O298        O  0.53161147  0.65817397  0.40961420    -1.13000
O299        O  0.54973588  0.61862930  0.40588642    -0.75500
O300        O  0.58640232  0.66157015  0.40909857    -0.79000
O301        O  0.51283598  0.69678947  0.41048860    -0.79700
C302        C  0.57527061  0.63525267  0.41098038     0.95600
O303        O  0.57073013  0.69069848  0.36483524    -0.77600
O304        O  0.49255039  0.59870588  0.41952009    -0.82800
C305        C  0.46895625  0.62791436  0.37929652     0.98200
C306        C  0.48715133  0.60237257  0.44557546     1.04100
O307        O  0.47127745  0.63820990  0.40445404    -0.78500
C308        C  0.56105165  0.67171302  0.34568658     1.02400
Fe309      Fe  0.31963569  0.43545919  0.05304004     1.65800
Fe310      Fe  0.38307942  0.48552335  0.07610504     1.73200
Fe311      Fe  0.34687058  0.50131335  0.02938268     1.54400
O312        O  0.32172758  0.47095650  0.49736066    -0.82200
O313        O  0.37973791  0.51651160  0.09582564    -0.80500
O314        O  0.32241646  0.43350920  0.00829703    -0.84700
O315        O  0.28876990  0.44643257  0.05022548    -0.79500
O316        O  0.38263311  0.51118333  0.00753451    -0.81300
O317        O  0.36092785  0.46017894  0.11095018    -0.84100
C318        C  0.28886507  0.46927058  0.05254403     0.96700
C319        C  0.32056155  0.44846076  0.49029845     1.04100
O320        O  0.34988690  0.47405029  0.05296184    -1.13000
O321        O  0.38904607  0.45552306  0.05835650    -0.75500
O322        O  0.34606424  0.41904905  0.05624076    -0.79000
O323        O  0.31098825  0.49268665  0.05015581    -0.79700
C324        C  0.37241202  0.42965773  0.05590984     0.95600
O325        O  0.31621559  0.43620187  0.09771497    -0.77600
O326        O  0.40954048  0.51286454  0.04428415    -0.82800
C327        C  0.37931895  0.53649646  0.08346178     0.98200
C328        C  0.40633020  0.51860702  0.01826638     1.04100
O329        O  0.36946283  0.53425437  0.05802438    -0.78500
C330        C  0.33512612  0.44582014  0.11707822     1.02400
Fe331      Fe  0.31707427  0.43352597  0.30408795     1.65800
Fe332      Fe  0.38154275  0.48377315  0.32341354     1.73200
Fe333      Fe  0.34329886  0.49879736  0.27885013     1.54400
O334        O  0.31961588  0.46963222  0.24737119    -0.82200
O335        O  0.37972907  0.51563199  0.34323207    -0.80500
O336        O  0.31898793  0.43085001  0.25940831    -0.84700
O337        O  0.28629508  0.44443178  0.30200431    -0.79500
O338        O  0.37819237  0.50854182  0.25511008    -0.81300
O339        O  0.36066281  0.45939401  0.35933527    -0.84100
C340        C  0.28664655  0.46726036  0.30551289     0.96700
C341        C  0.31903513  0.44735336  0.24039926     1.04100
O342        O  0.34735423  0.47210205  0.30234426    -1.13000
O343        O  0.38611681  0.45308069  0.30481715    -0.75500
O344        O  0.34306051  0.41670232  0.30655442    -0.79000
O345        O  0.30851739  0.49061119  0.30164509    -0.79700
C346        C  0.36909591  0.42722713  0.30269025     0.95600
O347        O  0.31529244  0.43546185  0.34887495    -0.77600
O348        O  0.40649581  0.51018043  0.29024059    -0.82800
C349        C  0.37854361  0.53522553  0.33084228     0.98200
C350        C  0.40235058  0.51601467  0.26460563     1.04100
O351        O  0.36716922  0.53230690  0.30615414    -0.78500
C352        C  0.33525102  0.44510609  0.36708117     1.02400
Fe353      Fe  0.12067375  0.43408877  0.07718999     1.65800
Fe354      Fe  0.10763631  0.48377971  0.05553548     1.73200
Fe355      Fe  0.16086672  0.50000162  0.10070756     1.54400
O356        O  0.15457918  0.47192723  0.13387449    -0.82200
O357        O  0.14192744  0.51353786  0.03387117    -0.80500
O358        O  0.11653802  0.43215781  0.12167424    -0.84700
O359        O  0.16260935  0.44485385  0.07959460    -0.79500
O360        O  0.13529326  0.50999664  0.12300651    -0.81300
O361        O  0.10120606  0.45671572  0.02163271    -0.84100
C362        C  0.18586905  0.46755044  0.07722647     0.96700
C363        C  0.13335973  0.44868524  0.14057348     1.04100
O364        O  0.12989373  0.47264133  0.07761211    -1.13000
O365        O  0.07253431  0.45516071  0.07639846    -0.75500
O366        O  0.07756396  0.41816799  0.07527721    -0.79000
O367        O  0.18793114  0.49116590  0.07976860    -0.79700
C368        C  0.06289696  0.42940683  0.07959349     0.95600
O369        O  0.12392622  0.43470084  0.03238171    -0.77600
O370        O  0.11079015  0.51251469  0.08628267    -0.82800
C371        C  0.16217534  0.53418501  0.04615275     0.98200
C372        C  0.11930819  0.51770041  0.11244603     1.04100
O373        O  0.17060400  0.53237185  0.07138242    -0.78500
C374        C  0.11236867  0.44273612  0.01410068     1.02400
Fe375      Fe  0.11898124  0.43376226  0.32673537     1.65800
Fe376      Fe  0.10661990  0.48397595  0.30437854     1.73200
Fe377      Fe  0.15931869  0.49985963  0.35050124     1.54400
O378        O  0.15225037  0.47184871  0.38363086    -0.82200
O379        O  0.14130603  0.51449083  0.28406363    -0.80500
O380        O  0.11499345  0.43143294  0.37141365    -0.84700
O381        O  0.16046799  0.44424343  0.32936846    -0.79500
O382        O  0.13394460  0.51069029  0.37217859    -0.81300
O383        O  0.10205161  0.45833359  0.26992644    -0.84100
C384        C  0.18390199  0.46664588  0.32752941     0.96700
C385        C  0.13199532  0.44799581  0.39024538     1.04100
O386        O  0.12832332  0.47251895  0.32716726    -1.13000
O387        O  0.07076145  0.45445899  0.32325249    -0.75500
O388        O  0.07601308  0.41762636  0.32467850    -0.79000
O389        O  0.18633628  0.49041045  0.33037691    -0.79700
C390        C  0.06125330  0.42887426  0.32768914     0.95600
O391        O  0.12267376  0.43452850  0.28189907    -0.77600
O392        O  0.10823900  0.51158973  0.33568284    -0.82800
C393        C  0.16232184  0.53452353  0.29607737     0.98200
C394        C  0.11747089  0.51780218  0.36151359     1.04100
O395        O  0.17046439  0.53247276  0.32130471    -0.78500
C396        C  0.11272900  0.44378349  0.26305988     1.02400
Fe397      Fe  0.12096469  0.68581665  0.22053188     1.65800
Fe398      Fe  0.10453411  0.62106706  0.24078995     1.73200
Fe399      Fe  0.15792212  0.65820637  0.19486599     1.54400
O400        O  0.15356674  0.68277746  0.16398587    -0.82200
O401        O  0.13844751  0.62155871  0.25894215    -0.80500
O402        O  0.11572147  0.68403497  0.17620975    -0.84700
O403        O  0.16343356  0.71562002  0.21743759    -0.79500
O404        O  0.13094226  0.62380036  0.17143584    -0.81300
O405        O  0.10381497  0.64293315  0.27713534    -0.84100
C406        C  0.18580654  0.71488612  0.22037407     0.96700
C407        C  0.13265156  0.68487512  0.15728934     1.04100
O408        O  0.12762104  0.65483508  0.21888032    -1.13000
O409        O  0.06831076  0.61719266  0.22490322    -0.75500
O410        O  0.07766572  0.66092638  0.22384460    -0.79000
O411        O  0.18611530  0.69250181  0.21762819    -0.79700
C412        C  0.06058800  0.63488236  0.22286397     0.95600
O413        O  0.12571349  0.68797345  0.26495280    -0.77600
O414        O  0.10371239  0.59574368  0.20685018    -0.82800
C415        C  0.15883638  0.62239755  0.24587598     0.98200
C416        C  0.11367405  0.59980363  0.18111654     1.04100
O417        O  0.16692222  0.63357713  0.22108278    -0.78500
C418        C  0.11611326  0.66864619  0.28377660     1.02400
Fe419      Fe  0.12082664  0.68588053  0.47053650     1.65800
Fe420      Fe  0.10487431  0.62192226  0.49294768     1.73200
Fe421      Fe  0.15839374  0.65789080  0.44708621     1.54400
O422        O  0.15349693  0.68050527  0.41426950    -0.82200
O423        O  0.14090990  0.62491292  0.01226209    -0.80500
O424        O  0.11637639  0.68330771  0.42590208    -0.84700
O425        O  0.16330358  0.71604537  0.46789205    -0.79500
O426        O  0.13184313  0.62235513  0.42481562    -0.81300
O427        O  0.10331854  0.64331248  0.02857803    -0.84100
C428        C  0.18588462  0.71562731  0.47057270     0.96700
C429        C  0.13268206  0.68265372  0.40710575     1.04100
O430        O  0.12803272  0.65520963  0.47040323    -1.13000
O431        O  0.06942069  0.61698692  0.47384023    -0.75500
O432        O  0.07742733  0.66024496  0.47281283    -0.79000
O433        O  0.18634133  0.69331045  0.46826490    -0.79700
C434        C  0.06122933  0.63414595  0.46992622     0.95600
O435        O  0.12357136  0.68816414  0.01638054    -0.77600
O436        O  0.10535538  0.59548175  0.46111108    -0.82800
C437        C  0.15960994  0.62494915  0.50106786     0.98200
C438        C  0.11499865  0.59861600  0.43538209     1.04100
O439        O  0.16770416  0.63507656  0.47580618    -0.78500
C440        C  0.11385606  0.66882226  0.03519906     1.02400
Fe441      Fe  0.88381352  0.57182647  0.19923503     1.65800
Fe442      Fe  0.89897862  0.52342630  0.17695276     1.73200
Fe443      Fe  0.84604706  0.50575465  0.22343579     1.54400
O444        O  0.85018615  0.53376390  0.25525729    -0.82200
O445        O  0.86450139  0.49066667  0.15775792    -0.80500
O446        O  0.88764924  0.57402112  0.24376171    -0.84700
O447        O  0.84126172  0.55850909  0.20102220    -0.79500
O448        O  0.87309268  0.49799306  0.24622517    -0.81300
O449        O  0.90132759  0.54784137  0.14155729    -0.84100
C450        C  0.81875252  0.53509856  0.19817070     0.96700
C451        C  0.87046118  0.55734572  0.26230465     1.04100
O452        O  0.87635065  0.53372167  0.19966068    -1.13000
O453        O  0.93501548  0.55486012  0.19471230    -0.75500
O454        O  0.92722940  0.59015818  0.19743026    -0.79000
O455        O  0.81790359  0.51216784  0.20153723    -0.79700
C456        C  0.94334094  0.58029629  0.19901708     0.95600
O457        O  0.88072507  0.57155348  0.15468817    -0.77600
O458        O  0.89897174  0.49746906  0.20954049    -0.82800
C459        C  0.84441888  0.47033456  0.17074476     0.98200
C460        C  0.88974495  0.49113913  0.23545132     1.04100
O461        O  0.83690405  0.47265702  0.19610194    -0.78500
C462        C  0.89033624  0.56239162  0.13546577     1.02400
Fe463      Fe  0.88561209  0.57215769  0.44824627     1.65800
Fe464      Fe  0.89555533  0.52054834  0.42489065     1.73200
Fe465      Fe  0.84604591  0.50705588  0.47423092     1.54400
O466        O  0.85303334  0.53352004  0.00699789    -0.82200
O467        O  0.85928296  0.48857526  0.40795813    -0.80500
O468        O  0.88977207  0.57319048  0.99298989    -0.84700
O469        O  0.84373799  0.56150061  0.45274274    -0.79500
O470        O  0.87279415  0.49581156  0.99546794    -0.81300
O471        O  0.89699872  0.54429962  0.38984055    -0.84100
C472        C  0.82043388  0.53879803  0.45022583     0.96700
C473        C  0.87387739  0.55723108  0.01269178     1.04100
O474        O  0.87583124  0.53331014  0.44890413    -1.13000
O475        O  0.93336814  0.55104618  0.43961237    -0.75500
O476        O  0.92859044  0.58801899  0.44341868    -0.79000
O477        O  0.81829685  0.51517321  0.45348883    -0.79700
C478        C  0.94368767  0.57692576  0.44270525     0.95600
O479        O  0.87985945  0.57094534  0.40387800    -0.77600
O480        O  0.89624299  0.49524799  0.45751104    -0.82800
C481        C  0.84031759  0.46865143  0.42241044     0.98200
C482        C  0.88864754  0.49032642  0.48398736     1.04100
O483        O  0.83389007  0.47227572  0.44784474    -0.78500
C484        C  0.88779922  0.56045484  0.38432017     1.02400
Fe485      Fe  0.88422449  0.32009455  0.09185057     1.65800
Fe486      Fe  0.89917485  0.38374255  0.11472819     1.73200
Fe487      Fe  0.84693244  0.34811045  0.06705509     1.54400
O488        O  0.85341339  0.32659101  0.03417136    -0.82200
O489        O  0.86462634  0.38177621  0.13338159    -0.80500
O490        O  0.88988111  0.32308383  0.04742457    -0.84700
O491        O  0.84198752  0.28968366  0.08818735    -0.79500
O492        O  0.87397739  0.38444335  0.04611093    -0.81300
O493        O  0.90042859  0.36092511  0.14952425    -0.84100
C494        C  0.81918551  0.28972466  0.09025821     0.96700
C495        C  0.87395231  0.32361837  0.02808984     1.04100
O496        O  0.87677633  0.35070188  0.09140205    -1.13000
O497        O  0.93560925  0.38886450  0.09803198    -0.75500
O498        O  0.92730758  0.34558860  0.09607634    -0.79000
O499        O  0.81834154  0.31180427  0.08698285    -0.79700
C500        C  0.94395961  0.37169373  0.09532085     0.95600
O501        O  0.87959844  0.31633660  0.13631539    -0.77600
O502        O  0.90036475  0.41065178  0.08287520    -0.82800
C503        C  0.84389246  0.38057486  0.12057874     0.98200
C504        C  0.89109581  0.40792775  0.05709283     1.04100
O505        O  0.83618561  0.37010278  0.09540425    -0.78500
C506        C  0.88937633  0.33522312  0.15560957     1.02400
Fe507      Fe  0.88358859  0.31974984  0.34204029     1.65800
Fe508      Fe  0.89789014  0.38336642  0.36494810     1.73200
Fe509      Fe  0.84597206  0.34751017  0.31690165     1.54400
O510        O  0.85326152  0.32646693  0.28399291    -0.82200
O511        O  0.86333371  0.38204490  0.38282693    -0.80500
O512        O  0.88942645  0.32260554  0.29781932    -0.84700
O513        O  0.84180477  0.28936056  0.33836599    -0.79500
O514        O  0.87266733  0.38431948  0.29620479    -0.81300
O515        O  0.89822581  0.36032553  0.40002429    -0.84100
C516        C  0.81905493  0.28926182  0.34071942     0.96700
C517        C  0.87384350  0.32342072  0.27829296     1.04100
O518        O  0.87586712  0.35032083  0.34143251    -1.13000
O519        O  0.93450752  0.38815678  0.34940904    -0.75500
O520        O  0.92641630  0.34502469  0.34636143    -0.79000
O521        O  0.81760762  0.31096980  0.33673947    -0.79700
C522        C  0.94298920  0.37108741  0.34667373     0.95600
O523        O  0.87874130  0.31590493  0.38632160    -0.77600
O524        O  0.89977449  0.41039666  0.33267764    -0.82800
C525        C  0.84259724  0.38061130  0.36978892     0.98200
C526        C  0.89002208  0.40781899  0.30711050     1.04100
O527        O  0.83450540  0.36903710  0.34513433    -0.78500
C528        C  0.88772313  0.33461360  0.40574243     1.02400
C529        C  0.85754160  0.30221148  0.47877491    -0.20800
C530        C  0.87904940  0.32072464  0.49719979    -0.07400
C531        C  0.90462916  0.34141147  0.48530296     0.13500
C532        C  0.90756596  0.34397592  0.45508179    -0.20900
C533        C  0.88545213  0.32667915  0.43657145    -0.07400
C534        C  0.86040079  0.30488851  0.44846345     0.13500
C535        C  0.83591485  0.28580868  0.42955292    -0.24200
H536        H  0.83790061  0.28663165  0.48818744     0.14800
H537        H  0.92673703  0.36061847  0.44581772     0.14800
C538        C  0.92828196  0.36452098  0.00229107    -0.24200
H539        H  0.81770297  0.27077722  0.44268499     0.05000
H540        H  0.84166027  0.27367312  0.41499693     0.08200
H541        H  0.82941560  0.29814717  0.41627197     0.08200
H542        H  0.93553978  0.35496392  0.01837908     0.08200
H543        H  0.92067574  0.37685106  0.01382058     0.08200
H544        H  0.94614728  0.37759028  0.49127466     0.05000
C545        C  0.90861238  0.34662454  0.20531674    -0.20800
C546        C  0.88741868  0.32773517  0.18672687    -0.07400
C547        C  0.86332035  0.30476052  0.19882361     0.13500
C548        C  0.86019718  0.30261722  0.22920252    -0.20900
C549        C  0.88059781  0.32266271  0.24754523    -0.07400
C550        C  0.90541662  0.34451444  0.23554936     0.13500
C551        C  0.92761997  0.36691619  0.25439705    -0.24200
H552        H  0.92716562  0.36407825  0.19607855     0.14800
H553        H  0.84118131  0.28600876  0.23867672     0.14800
C554        C  0.84000996  0.28352225  0.18004352    -0.24200
H555        H  0.94523425  0.38294587  0.24131669     0.05000
H556        H  0.93606585  0.35762137  0.26949266     0.08200
H557        H  0.91869990  0.37743675  0.26712161     0.08200
H558        H  0.84776888  0.27261996  0.16619520     0.08200
H559        H  0.83169249  0.29386126  0.16608573     0.08200
H560        H  0.82251003  0.26754641  0.19328388     0.05000
C561        C  0.90134275  0.43108656  0.00927586    -0.20800
C562        C  0.89885356  0.43288302  0.03941915    -0.07400
C563        C  0.89917666  0.45644764  0.05119373     0.13500
C564        C  0.89818902  0.47555266  0.03225409    -0.20900
C565        C  0.89723087  0.47190414  0.00197305    -0.07400
C566        C  0.89886876  0.45114780  0.48923447     0.13500
C567        C  0.90161541  0.44844069  0.45690440    -0.24200
H568        H  0.89764754  0.41271407  0.49809090     0.14800
H569        H  0.89661041  0.49264686  0.04120682     0.14800
C570        C  0.89867851  0.46076908  0.08350776    -0.24200
H571        H  0.90327626  0.42995824  0.45152427     0.05000
H572        H  0.92078258  0.46705844  0.44879868     0.08200
H573        H  0.88328245  0.44624988  0.44514133     0.08200
H574        H  0.91772598  0.46291512  0.09366993     0.08200
H575        H  0.88007579  0.44289636  0.09333043     0.08200
H576        H  0.89797864  0.47983204  0.08863717     0.05000
C577        C  0.82619559  0.43739793  0.37964628    -0.20800
C578        C  0.82821086  0.44024904  0.41002009    -0.07400
C579        C  0.82574755  0.41786318  0.42691307     0.13500
C580        C  0.82755799  0.39642937  0.41297868    -0.20900
C581        C  0.82979972  0.39588332  0.38261077    -0.07400
C582        C  0.82611911  0.41500004  0.36570748     0.13500
C583        C  0.82399176  0.41314727  0.33297503    -0.24200
H584        H  0.82677991  0.45388800  0.36664331     0.14800
H585        H  0.82910201  0.38104658  0.42594839     0.14800
C586        C  0.82304800  0.41720198  0.45957923    -0.24200
H587        H  0.82166469  0.43014382  0.32349890     0.05000
H588        H  0.80546489  0.39308072  0.32661828     0.08200
H589        H  0.84280290  0.41452196  0.32325822     0.08200
H590        H  0.80408206  0.41778937  0.46561040     0.08200
H591        H  0.84148221  0.43512953  0.46959113     0.08200
H592        H  0.82112454  0.39798345  0.46897627     0.05000
C593        C  0.90232396  0.57377865  0.30402516    -0.20800
C594        C  0.87534752  0.56417343  0.29345201    -0.07400
C595        C  0.85335536  0.55741216  0.31323893     0.13500
C596        C  0.85868774  0.55886305  0.34319703    -0.20900
C597        C  0.88508827  0.56580499  0.35358162    -0.07400
C598        C  0.90736840  0.57410793  0.33387753     0.13500
C599        C  0.93632116  0.58265986  0.34417202    -0.24200
H600        H  0.91912182  0.57894488  0.28880250     0.14800
H601        H  0.84172100  0.55261182  0.35851355     0.14800
C602        C  0.82424497  0.54827543  0.30297833    -0.24200
H603        H  0.95148285  0.59007690  0.32592694     0.05000
H604        H  0.93649153  0.56473930  0.35429966     0.08200
H605        H  0.94345780  0.59977496  0.36025247     0.08200
H606        H  0.81503602  0.52792759  0.29174584     0.08200
H607        H  0.82474733  0.56405256  0.28790929     0.08200
H608        H  0.81028184  0.54577160  0.32142058     0.05000
C609        C  0.91018788  0.57685076  0.08585549    -0.20800
C610        C  0.88717698  0.56719579  0.10448931    -0.07400
C611        C  0.86060526  0.55858940  0.09266808     0.13500
C612        C  0.85731119  0.55770291  0.06240550    -0.20900
C613        C  0.87991806  0.56545470  0.04362768    -0.07400
C614        C  0.90698430  0.57644438  0.05549151     0.13500
C615        C  0.93225694  0.58605459  0.03639786    -0.24200
H616        H  0.93056084  0.58366653  0.09509850     0.14800
H617        H  0.83665719  0.54953865  0.05328672     0.14800
C618        C  0.83526137  0.54820974  0.11177490    -0.24200
H619        H  0.95153619  0.59337629  0.04941171     0.05000
H620        H  0.93519346  0.60364184  0.02257730     0.08200
H621        H  0.92964202  0.56871057  0.02236908     0.08200
H622        H  0.83764773  0.56512553  0.12633625     0.08200
H623        H  0.83270855  0.53047836  0.12504415     0.08200
H624        H  0.81594838  0.54100349  0.09885960     0.05000
C625        C  0.89824125  0.43092488  0.25926598    -0.20800
C626        C  0.89747996  0.43296603  0.28960859    -0.07400
C627        C  0.89956314  0.45722720  0.30196134     0.13500
C628        C  0.89845566  0.47673634  0.28358234    -0.20900
C629        C  0.89689478  0.47347000  0.25322652    -0.07400
C630        C  0.89860022  0.45112257  0.24090008     0.13500
C631        C  0.89945960  0.44748748  0.20849667    -0.24200
H632        H  0.89753976  0.41278595  0.24981567     0.14800
H633        H  0.89806994  0.49433104  0.29301462     0.14800
C634        C  0.90206716  0.46245446  0.33433785    -0.24200
H635        H  0.91855446  0.46541491  0.19928330     0.05000
H636        H  0.89980706  0.42832645  0.20290955     0.08200
H637        H  0.88090441  0.44604296  0.19808491     0.08200
H638        H  0.92157915  0.46401076  0.34236768     0.08200
H639        H  0.88413270  0.44546758  0.34604538     0.08200
H640        H  0.90285113  0.48218709  0.33990242     0.05000
C641        C  0.82897841  0.42060213  0.17581043    -0.20800
C642        C  0.83217703  0.44232151  0.15770593    -0.07400
C643        C  0.82914588  0.43793982  0.12735568     0.13500
C644        C  0.82775150  0.41401273  0.11575606    -0.20900
C645        C  0.83100371  0.39550590  0.13375232    -0.07400
C646        C  0.82904858  0.39744627  0.16418667     0.13500
C647        C  0.82837580  0.37619345  0.18486202    -0.24200
H648        H  0.82971190  0.42310418  0.19925134     0.14800
H649        H  0.82790913  0.41185249  0.09233817     0.14800
C650        C  0.82846851  0.45882716  0.10711596    -0.24200
H651        H  0.80956498  0.36793309  0.19882509     0.05000
H652        H  0.84717144  0.38602277  0.19892483     0.08200
H653        H  0.82742814  0.35828099  0.17336765     0.08200
H654        H  0.84878492  0.47855793  0.10708372     0.08200
H655        H  0.81182753  0.46294688  0.11404370     0.08200
H656        H  0.82409096  0.45108507  0.08436561     0.05000
C657        C  0.02102800  0.60144617  0.44008241    -0.20800
C658        C  0.03182424  0.62274065  0.46088564    -0.07400
C659        C  0.01403970  0.63112783  0.47328469     0.13500
C660        C  0.98554117  0.61679514  0.46583732    -0.20900
C661        C  0.97442121  0.59423479  0.44639309    -0.07400
C662        C  0.99277767  0.58726284  0.43246383     0.13500
C663        C  0.98307416  0.56518771  0.40918300    -0.24200
H664        H  0.03483214  0.59553734  0.42998664     0.14800
H665        H  0.97168122  0.62240196  0.47627677     0.14800
C666        C  0.02460608  0.65407544  0.49548253    -0.24200
H667        H  0.00080502  0.56471497  0.39877695     0.05000
H668        H  0.97186740  0.56947381  0.39190047     0.08200
H669        H  0.96930549  0.54427725  0.41859681     0.08200
H670        H  0.04073580  0.67391915  0.48557215     0.08200
H671        H  0.03365815  0.64887805  0.51422501     0.08200
H672        H  0.00768236  0.65718426  0.50377954     0.05000
C673        C  0.02104488  0.63242817  0.19487367    -0.20800
C674        C  0.03044916  0.62437009  0.21926669    -0.07400
C675        C  0.01073718  0.60461360  0.23882026     0.13500
C676        C  0.98227435  0.59183344  0.23234078    -0.20900
C677        C  0.97292114  0.59844523  0.20699172    -0.07400
C678        C  0.99240088  0.61955417  0.18841861     0.13500
C679        C  0.98307249  0.62738104  0.16113636    -0.24200
H680        H  0.03620931  0.64779055  0.18003614     0.14800
H681        H  0.96717701  0.57587125  0.24671574     0.14800
C682        C  0.01961884  0.59701301  0.26663315    -0.24200
H683        H  0.00099339  0.64385952  0.14875626     0.05000
H684        H  0.96900565  0.63528311  0.16684997     0.08200
H685        H  0.97179281  0.60891623  0.14682441     0.08200
H686        H  0.03258195  0.61604276  0.27971928     0.08200
H687        H  0.03174624  0.58676859  0.26175741     0.08200
H688        H  0.00142852  0.58241785  0.28007256     0.05000
C689        C  0.09703119  0.66343589  0.33348032    -0.20800
C690        C  0.12009785  0.67611217  0.31485641    -0.07400
C691        C  0.14696671  0.69348167  0.32657071     0.13500
C692        C  0.15018456  0.69673115  0.35682463    -0.20900
C693        C  0.12724095  0.68325547  0.37566376    -0.07400
C694        C  0.10016866  0.66698728  0.36375216     0.13500
C695        C  0.07466556  0.65197806  0.38274346    -0.24200
H696        H  0.07651595  0.65009450  0.32427554     0.14800
H697        H  0.17091233  0.70905834  0.36592568     0.14800
C698        C  0.17248654  0.70724681  0.30743083    -0.24200
H699        H  0.05543303  0.63955909  0.36971074     0.05000
H700        H  0.07195948  0.66725282  0.39559846     0.08200
H701        H  0.07680306  0.63754130  0.39765986     0.08200
H702        H  0.17113132  0.72199862  0.29231892     0.08200
H703        H  0.17417671  0.69127197  0.29470754     0.08200
H704        H  0.19188659  0.71915775  0.32034933     0.05000
C705        C  0.10022349  0.66590875  0.11621735    -0.20800
C706        C  0.12677314  0.68573213  0.12626678    -0.07400
C707        C  0.14783692  0.70248996  0.10611193     0.13500
C708        C  0.14220592  0.69779587  0.07627537    -0.20900
C709        C  0.11642944  0.67617261  0.06627624    -0.07400
C710        C  0.09488778  0.66049459  0.08645894     0.13500
C711        C  0.06640889  0.63780493  0.07690215    -0.24200
H712        H  0.08414071  0.65311402  0.13182424     0.14800
H713        H  0.15860554  0.70992880  0.06072141     0.14800
C714        C  0.17624220  0.72513455  0.11591129    -0.24200
H715        H  0.05168973  0.62921579  0.09549891     0.05000
H716        H  0.06766895  0.62035003  0.06708940     0.08200
H717        H  0.05769550  0.64618455  0.06083445     0.08200
H718        H  0.18717898  0.71612500  0.12765721     0.08200
H719        H  0.17407560  0.73979286  0.13043836     0.08200
H720        H  0.18953636  0.73715907  0.09720054     0.05000
C721        C  0.99058133  0.40835567  0.35832718    -0.20800
C722        C  0.97350158  0.38272528  0.34463617    -0.07400
C723        C  0.98612445  0.37004826  0.32909846     0.13500
C724        C  0.01512668  0.38514593  0.32460275    -0.20900
C725        C  0.03170024  0.41193186  0.33617600    -0.07400
C726        C  0.01943003  0.42286601  0.35481381     0.13500
C727        C  0.03654182  0.44952339  0.37167973    -0.24200
H728        H  0.98121214  0.41738602  0.37175476     0.14800
H729        H  0.02479267  0.37634124  0.31127005     0.14800
C730        C  0.96946896  0.34103212  0.31698433    -0.24200
H731        H  0.02362607  0.45305758  0.38753157     0.05000
H732        H  0.04603474  0.46769183  0.35685072     0.08200
H733        H  0.05309704  0.44853024  0.38410169     0.08200
H734        H  0.95342508  0.33949916  0.30171080     0.08200
H735        H  0.95924602  0.32599916  0.33503379     0.08200
H736        H  0.98284114  0.33489897  0.30505759     0.05000
C737        C  0.17788542  0.58411508  0.29994302    -0.20800
C738        C  0.17428571  0.56207748  0.28215619    -0.07400
C739        C  0.17418793  0.56494205  0.25159509     0.13500
C740        C  0.17291696  0.58748164  0.23998558    -0.20900
C741        C  0.17101537  0.60658796  0.25826835    -0.07400
C742        C  0.17552431  0.60607547  0.28842041     0.13500
C743        C  0.17659684  0.62784710  0.30863298    -0.24200
H744        H  0.17881976  0.58237989  0.32334797     0.14800
H745        H  0.17035860  0.58841771  0.21669446     0.14800
C746        C  0.17427983  0.54380535  0.23122789    -0.24200
H747        H  0.18189219  0.62508242  0.33119640     0.05000
H748        H  0.15612269  0.62660042  0.30943198     0.08200
H749        H  0.19274690  0.64882584  0.30104605     0.08200
H750        H  0.15473138  0.52345883  0.23310710     0.08200
H751        H  0.19228466  0.54120612  0.23630933     0.08200
H752        H  0.17615919  0.55048704  0.20817093     0.05000
C753        C  0.10884743  0.53127748  0.41000732    -0.20800
C754        C  0.10993708  0.53493297  0.37971640    -0.07400
C755        C  0.10692366  0.55675125  0.36804600     0.13500
C756        C  0.10656557  0.57624014  0.38702039    -0.20900
C757        C  0.10813702  0.57399739  0.41729458    -0.07400
C758        C  0.10753698  0.55025119  0.42896268     0.13500
C759        C  0.10709556  0.54542252  0.46126757    -0.24200
H760        H  0.11010192  0.51400873  0.41894476     0.14800
H761        H  0.10622325  0.59402647  0.37812932     0.14800
C762        C  0.10544714  0.56062677  0.33576406    -0.24200
H763        H  0.10735202  0.52612268  0.46636577     0.05000
H764        H  0.08785483  0.54334034  0.47085134     0.08200
H765        H  0.12558420  0.56301569  0.47166003     0.08200
H766        H  0.08679471  0.54220749  0.32653187     0.08200
H767        H  0.12446630  0.56344265  0.32494051     0.08200
H768        H  0.10375633  0.57916328  0.33075828     0.05000
C769        C  0.01649958  0.38763612  0.07150048    -0.20800
C770        C  0.03311639  0.41216980  0.08711698    -0.07400
C771        C  0.02050114  0.42126731  0.10755994     0.13500
C772        C  0.99147444  0.40670143  0.11017208    -0.20900
C773        C  0.97447353  0.38326217  0.09300188    -0.07400
C774        C  0.98732152  0.37304026  0.07396445     0.13500
C775        C  0.97162831  0.34791129  0.05474059    -0.24200
H776        H  0.02625663  0.38059813  0.05598863     0.14800
H777        H  0.98186674  0.41407637  0.12548875     0.14800
C778        C  0.03741076  0.44613982  0.12695182    -0.24200
H779        H  0.97778515  0.33242244  0.06019792     0.05000
H780        H  0.97714309  0.35417064  0.03165523     0.08200
H781        H  0.94880967  0.33753029  0.05672838     0.08200
H782        H  0.04794313  0.46553870  0.11395644     0.08200
H783        H  0.05317100  0.44352612  0.13895593     0.08200
H784        H  0.02416545  0.44867853  0.14325102     0.05000
C785        C  0.17555122  0.58314248  0.05177460    -0.20800
C786        C  0.17264409  0.56194988  0.03304209    -0.07400
C787        C  0.17357649  0.56621570  0.00261469     0.13500
C788        C  0.17840024  0.59359395  0.49667512    -0.20900
C789        C  0.17277054  0.60906668  0.01087087    -0.07400
C790        C  0.17521830  0.60645304  0.04111103     0.13500
C791        C  0.17620604  0.62716188  0.06277138    -0.24200
H792        H  0.17526127  0.58027958  0.07513130     0.14800
H793        H  0.17941765  0.59674952  0.47335031     0.14800
C794        C  0.18397539  0.55241329  0.48707980    -0.24200
H795        H  0.19504879  0.63482805  0.07657633     0.05000
H796        H  0.15746174  0.61697917  0.07688634     0.08200
H797        H  0.17730867  0.64553500  0.05220885     0.08200
H798        H  0.18914792  0.54058971  0.98619287     0.08200
H799        H  0.18840657  0.56099550  0.46464959     0.08200
H800        H  0.16524488  0.53134410  0.48598915     0.05000
C801        C  0.10906326  0.55580726  0.11634914    -0.20800
C802        C  0.11198562  0.53506796  0.13039023    -0.07400
C803        C  0.10986708  0.53291148  0.16108881     0.13500
C804        C  0.10745931  0.55303500  0.17689902    -0.20900
C805        C  0.10782769  0.57559268  0.16297198    -0.07400
C806        C  0.10733665  0.57631485  0.13221381     0.13500
C807        C  0.10539823  0.59874114  0.11590545    -0.24200
H808        H  0.10999782  0.55712881  0.09282288     0.14800
H809        H  0.10750613  0.55229097  0.20046553     0.14800
C810        C  0.11046445  0.50981104  0.17750468    -0.24200
H811        H  0.10268499  0.59448735  0.09216776     0.05000
H812        H  0.12468415  0.61918140  0.11878481     0.08200
H813        H  0.08722403  0.59992899  0.12382415     0.08200
H814        H  0.13126575  0.51187871  0.17571756     0.08200
H815        H  0.09428657  0.48935860  0.16876641     0.08200
H816        H  0.10624502  0.51025046  0.20105204     0.05000
C817        C  0.14414611  0.44665116  0.47110754    -0.20800
C818        C  0.11773543  0.43942993  0.48176109    -0.07400
C819        C  0.09516223  0.43007525  0.46224792     0.13500
C820        C  0.10005360  0.43050562  0.43225931    -0.20900
C821        C  0.12707157  0.44068670  0.42141557    -0.07400
C822        C  0.14918334  0.44758977  0.44109477     0.13500
C823        C  0.17807923  0.45603868  0.43064889    -0.24200
H824        H  0.16128409  0.45323791  0.48624779     0.14800
H825        H  0.08303541  0.42477597  0.41717662     0.14800
C826        C  0.06599050  0.41988203  0.47295771    -0.24200
H827        H  0.19214852  0.45873240  0.44905004     0.05000
H828        H  0.18749699  0.47610533  0.41883844     0.08200
H829        H  0.17709783  0.43972856  0.41606049     0.08200
H830        H  0.06478693  0.43700760  0.48369923     0.08200
H831        H  0.05519312  0.41366622  0.98884490     0.08200
H832        H  0.05068181  0.41200497  0.45484657     0.05000
C833        C  0.10088241  0.43728561  0.18133899    -0.20800
C834        C  0.12672101  0.44197143  0.17161317    -0.07400
C835        C  0.14630023  0.44335346  0.19197959     0.13500
C836        C  0.14012540  0.44157339  0.22179829    -0.20900
C837        C  0.11524326  0.43939877  0.23169428    -0.07400
C838        C  0.09503856  0.43656765  0.21107620     0.13500
C839        C  0.06747424  0.43328659  0.21999578    -0.24200
H840        H  0.08589915  0.43606569  0.16554975     0.14800
H841        H  0.15557330  0.44360080  0.23748578     0.14800
C842        C  0.17355597  0.44652817  0.18232959    -0.24200
H843        H  0.05349787  0.42889060  0.20102049     0.05000
H844        H  0.07067814  0.45272166  0.23010054     0.08200
H845        H  0.05673377  0.41573960  0.23553190     0.08200
H846        H  0.18611331  0.46639794  0.17045176     0.08200
H847        H  0.16939351  0.42888267  0.16795346     0.08200
H848        H  0.18610549  0.44651182  0.20108157     0.05000
C849        C  0.23501836  0.44388320  0.30378459    -0.20800
C850        C  0.26042687  0.46660363  0.31309005    -0.07400
C851        C  0.26019769  0.48840562  0.32864061     0.13500
C852        C  0.23485724  0.48740539  0.33313644    -0.20900
C853        C  0.20954571  0.46526504  0.32281274    -0.07400
C854        C  0.20961230  0.44287018  0.30834216     0.13500
C855        C  0.18334529  0.41825479  0.29668088    -0.24200
H856        H  0.23508526  0.42706479  0.29209401     0.14800
H857        H  0.23486831  0.50423400  0.34491751     0.14800
C858        C  0.28631957  0.51257055  0.34124759    -0.24200
H859        H  0.18770364  0.40363948  0.28465761     0.05000
H860        H  0.17286331  0.42543132  0.28143395     0.08200
H861        H  0.16912710  0.40645164  0.31487520     0.08200
H862        H  0.30042085  0.52571500  0.32357775     0.08200
H863        H  0.29709134  0.50477354  0.35528391     0.08200
H864        H  0.28167225  0.52616683  0.35481587     0.05000
C865        C  0.23134846  0.48714910  0.05222025    -0.20800
C866        C  0.21161336  0.46681186  0.07089051    -0.07400
C867        C  0.21747340  0.44725758  0.08363634     0.13500
C868        C  0.24248201  0.44814715  0.07667668    -0.20900
C869        C  0.26232809  0.46868404  0.05818818    -0.07400
C870        C  0.25657314  0.48847140  0.04575960     0.13500
C871        C  0.27640687  0.51061719  0.02494418    -0.24200
H872        H  0.22693282  0.50218230  0.04247881     0.14800
H873        H  0.24684634  0.43307269  0.08628996     0.14800
C874        C  0.19828905  0.42640455  0.10575235    -0.24200
H875        H  0.26744813  0.52275894  0.01573641     0.05000
H876        H  0.28120914  0.50087232  0.00653735     0.08200
H877        H  0.29589140  0.52555042  0.03636611     0.08200
H878        H  0.17798584  0.41164374  0.09561447     0.08200
H879        H  0.19507081  0.43748262  0.12395718     0.08200
H880        H  0.18936768  0.40404919  0.53435109     0.05000
C881        C  0.34108816  0.43759752  0.44874408    -0.20800
C882        C  0.32013127  0.44217345  0.45908799    -0.07400
C883        C  0.30211922  0.44440535  0.43912543     0.13500
C884        C  0.30642956  0.44333826  0.40913916    -0.20900
C885        C  0.32890586  0.44107575  0.39867993    -0.07400
C886        C  0.34611354  0.43758435  0.41885302     0.13500
C887        C  0.37004520  0.43414208  0.40928622    -0.24200
H888        H  0.35485033  0.43594775  0.46418031     0.14800
H889        H  0.29313536  0.44588696  0.39381709     0.14800
C890        C  0.27841549  0.44794988  0.44933405    -0.24200
H891        H  0.37969410  0.42947893  0.42791288     0.05000
H892        H  0.38658792  0.45357971  0.39911484     0.08200
H893        H  0.36251711  0.41668876  0.39362210     0.08200
H894        H  0.28653971  0.46802681  0.46090441     0.08200
H895        H  0.26473241  0.43064135  0.46418989     0.08200
H896        H  0.26553964  0.44786173  0.43085899     0.05000
C897        C  0.34251785  0.43477384  0.16743262    -0.20800
C898        C  0.32726208  0.44150160  0.14821307    -0.07400
C899        C  0.30756360  0.44785023  0.15956983     0.13500
C900        C  0.30396504  0.44773583  0.18979317    -0.20900
C901        C  0.31961978  0.44160247  0.20905783    -0.07400
C902        C  0.33898026  0.43474274  0.19770518     0.13500
C903        C  0.35732373  0.42924200  0.21735564    -0.24200
H904        H  0.35798969  0.43045929  0.15870962     0.14800
H905        H  0.28960061  0.45356913  0.19853774     0.14800
C906        C  0.29164231  0.45661648  0.14009537    -0.24200
H907        H  0.37234411  0.42582128  0.20481527     0.05000
H908        H  0.34434682  0.41035982  0.23060747     0.08200
H909        H  0.36945259  0.44724588  0.23203135     0.08200
H910        H  0.30636647  0.47506891  0.12707682     0.08200
H911        H  0.27819098  0.46217962  0.15271769     0.08200
H912        H  0.27800219  0.43926476  0.12535571     0.05000
C913        C  0.44907824  0.55331830  0.45123676    -0.20800
C914        C  0.47003099  0.57780392  0.46436131    -0.07400
C915        C  0.47231221  0.57895794  0.49512473     0.13500
C916        C  0.45210418  0.56126690  0.01409801    -0.20900
C917        C  0.42905275  0.53398805  0.49860290    -0.07400
C918        C  0.42847931  0.53143088  0.46789687     0.13500
C919        C  0.40617637  0.50590122  0.45245496    -0.24200
H920        H  0.44768301  0.55198408  0.42769694     0.14800
H921        H  0.45118548  0.56387666  0.03738134     0.14800
C922        C  0.49373907  0.60928629  0.01338925    -0.24200
H923        H  0.38562874  0.50434957  0.45451207     0.05000
H924        H  0.41059789  0.50644906  0.42882685     0.08200
H925        H  0.40506740  0.48700998  0.46171704     0.08200
H926        H  0.49014621  0.62669057  0.00871479     0.08200
H927        H  0.51514551  0.61499817  0.00674036     0.08200
H928        H  0.49225865  0.60632800  0.03735369     0.05000
C929        C  0.41313696  0.58478588  0.32497403    -0.20800
C930        C  0.39473257  0.56325967  0.34357930    -0.07400
C931        C  0.39708509  0.56766222  0.37395708     0.13500
C932        C  0.41987639  0.59200267  0.38496338    -0.20900
C933        C  0.44099841  0.61108993  0.36640661    -0.07400
C934        C  0.43667173  0.60849844  0.33600802     0.13500
C935        C  0.45725391  0.62995817  0.31512363    -0.24200
H936        H  0.41096041  0.58165966  0.30162342     0.14800
H937        H  0.42288792  0.59430882  0.40832215     0.14800
C938        C  0.37652948  0.54626736  0.39491087    -0.24200
H939        H  0.44962310  0.62527923  0.29233248     0.05000
H940        H  0.47743179  0.63058863  0.31580800     0.08200
H941        H  0.46057625  0.65073848  0.32081630     0.08200
H942        H  0.37788828  0.52715684  0.39446656     0.08200
H943        H  0.35508263  0.54104490  0.38908508     0.08200
H944        H  0.38062613  0.55407388  0.41764941     0.05000
C945        C  0.56123672  0.70293708  0.27254971    -0.20800
C946        C  0.56709271  0.68679799  0.25374654    -0.07400
C947        C  0.57496744  0.66841022  0.26562718     0.13500
C948        C  0.57412123  0.66474191  0.29596295    -0.20900
C949        C  0.56652928  0.67966862  0.31463725    -0.07400
C950        C  0.56111069  0.69983516  0.30281887     0.13500
C951        C  0.55329799  0.71684190  0.32181140    -0.24200
H952        H  0.55545831  0.71717703  0.26340527     0.14800
H953        H  0.57857134  0.64954175  0.30512600     0.14800
C954        C  0.58273870  0.65148112  0.24648781    -0.24200
H955        H  0.54861420  0.73071210  0.30878543     0.05000
H956        H  0.57082712  0.73018322  0.33658189     0.08200
H957        H  0.53450296  0.70290267  0.33484113     0.08200
H958        H  0.60148673  0.66556521  0.23348619     0.08200
H959        H  0.56525447  0.63817270  0.23163502     0.08200
H960        H  0.58765303  0.63773770  0.25944187     0.05000
C961        C  0.57237964  0.67505497  0.01451815    -0.20800
C962        C  0.55990066  0.68989396  0.00436352    -0.07400
C963        C  0.55025785  0.70210744  0.02479643     0.13500
C964        C  0.55207998  0.69786360  0.05462375    -0.20900
C965        C  0.56245940  0.68112450  0.06444718    -0.07400
C966        C  0.57339424  0.67016754  0.04427460     0.13500
C967        C  0.58599331  0.65321026  0.05404773    -0.24200
H968        H  0.57991358  0.66577851  0.99901105     0.14800
H969        H  0.54388286  0.70634353  0.07033001     0.14800
C970        C  0.53793758  0.71948925  0.01555233    -0.24200
H971        H  0.59458648  0.64723508  0.03546602     0.05000
H972        H  0.56995883  0.63382049  0.06474814     0.08200
H973        H  0.60321077  0.66548192  0.06958647     0.08200
H974        H  0.51784393  0.70643947  0.00417982     0.08200
H975        H  0.55269159  0.73650138  0.00099438     0.08200
H976        H  0.53366733  0.72908582  0.03451342     0.05000
C977        C  0.45069153  0.55540002  0.26024094    -0.20800
C978        C  0.42671936  0.53450578  0.24626824    -0.07400
C979        C  0.42572253  0.53390142  0.21548201     0.13500
C980        C  0.44744312  0.55563785  0.19977982    -0.20900
C981        C  0.47008371  0.57801347  0.21393186    -0.07400
C982        C  0.47234510  0.57722375  0.24455843     0.13500
C983        C  0.49730735  0.59921692  0.26100720    -0.24200
H984        H  0.45179739  0.55565860  0.28379238     0.14800
H985        H  0.44588053  0.55588554  0.17628385     0.14800
C986        C  0.40211685  0.51044660  0.19890330    -0.24200
H987        H  0.49655018  0.59375369  0.28435524     0.05000
H988        H  0.49809391  0.61943320  0.26010466     0.08200
H989        H  0.51667836  0.60143513  0.25162918     0.08200
H990        H  0.38241463  0.51039639  0.20231431     0.08200
H991        H  0.39960566  0.49034878  0.20606171     0.08200
H992        H  0.40621728  0.51229008  0.17513487     0.05000
C993        C  0.41235668  0.58681647  0.07956237    -0.20800
C994        C  0.39471393  0.56418366  0.09741443    -0.07400
C995        C  0.39734386  0.56742943  0.12798887     0.13500
C996        C  0.42018153  0.59144446  0.13963296    -0.20900
C997        C  0.44059683  0.61181891  0.12141558    -0.07400
C998        C  0.43556289  0.61049912  0.09115222     0.13500
C999        C  0.45516921  0.63334107  0.07082555    -0.24200
H1000       H  0.40992249  0.58475635  0.05615156     0.14800
H1001       H  0.42360904  0.59278018  0.16293512     0.14800
C1002       C  0.37671108  0.54542902  0.14841806    -0.24200
H1003       H  0.44678986  0.62977984  0.04832375     0.05000
H1004       H  0.47557320  0.63448135  0.06973297     0.08200
H1005       H  0.45824463  0.65357567  0.07842373     0.08200
H1006       H  0.37740849  0.52603466  0.14669480     0.08200
H1007       H  0.35537654  0.54094309  0.14322010     0.08200
H1008       H  0.38116366  0.55231479  0.17145091     0.05000
C1009       C  0.38962888  0.37173139  0.30421919    -0.20800
C1010       C  0.41108301  0.38249474  0.28339569    -0.07400
C1011       C  0.41588767  0.40584935  0.26664494     0.13500
C1012       C  0.40081232  0.41903040  0.27280684    -0.20900
C1013       C  0.38067726  0.40940952  0.29485407    -0.07400
C1014       C  0.37424996  0.38486011  0.31007779     0.13500
C1015       C  0.35217724  0.37317184  0.33331952    -0.24200
H1016       H  0.38559210  0.35360849  0.31671454     0.14800
H1017       H  0.40519437  0.43744897  0.26066087     0.14800
C1018       C  0.43651276  0.41690972  0.24186375    -0.24200
H1019       H  0.35053973  0.35444522  0.34369906     0.05000
H1020       H  0.33161675  0.36709960  0.32365260     0.08200
H1021       H  0.35723812  0.38898891  0.35048189     0.08200
H1022       H  0.43200645  0.39985334  0.22640328     0.08200
H1023       H  0.45808642  0.42618148  0.25021521     0.08200
H1024       H  0.43539760  0.43343255  0.22956332     0.05000
C1025       C  0.37231234  0.38892622  0.03327877    -0.20800
C1026       C  0.38463768  0.41162413  0.05253751    -0.07400
C1027       C  0.40933341  0.41754210  0.06744587     0.13500
C1028       C  0.42195814  0.40199927  0.06116087    -0.20900
C1029       C  0.41065181  0.38049837  0.04063557    -0.07400
C1030       C  0.38509995  0.37328688  0.02709446     0.13500
C1031       C  0.37204645  0.35015863  0.00512313    -0.24200
H1032       H  0.35327446  0.38415454  0.02213021     0.14800
H1033       H  0.44124297  0.40703927  0.07199532     0.14800
C1034       C  0.42249981  0.43992438  0.09038230    -0.24200
H1035       H  0.35259752  0.34791948  0.99591731     0.05000
H1036       H  0.36678929  0.33015518  0.01554638     0.08200
H1037       H  0.38678553  0.35450682  0.98697028     0.08200
H1038       H  0.40678963  0.43673173  0.10712817     0.08200
H1039       H  0.43116021  0.46078434  0.08040138     0.08200
H1040       H  0.43999158  0.43961629  0.10158158     0.05000
C1041       C  0.44456286  0.30358577  0.42877800    -0.20800
C1042       C  0.43884586  0.32378025  0.43915578    -0.07400
C1043       C  0.43155045  0.33833957  0.41930304     0.13500
C1044       C  0.43200882  0.33368145  0.38943282    -0.20900
C1045       C  0.44036645  0.31548873  0.37894758    -0.07400
C1046       C  0.44581186  0.29949681  0.39883875     0.13500
C1047       C  0.45314746  0.27831408  0.38874538    -0.24200
H1048       H  0.44984411  0.29224366  0.44410919     0.14800
H1049       H  0.42767085  0.34577543  0.37413046     0.14800
C1050       C  0.42338745  0.35887071  0.42940824    -0.24200
H1051       H  0.45463367  0.26635959  0.40726169     0.05000
H1052       H  0.47361621  0.28867513  0.37758140     0.08200
H1053       H  0.43684226  0.26334184  0.37367792     0.08200
H1054       H  0.44121719  0.37687328  0.44019571     0.08200
H1055       H  0.40567231  0.34852398  0.44480550     0.08200
H1056       H  0.41679962  0.36707022  0.41097944     0.05000
C1057       C  0.44261665  0.29955059  0.14777871    -0.20800
C1058       C  0.43833115  0.31681552  0.12901774    -0.07400
C1059       C  0.43180388  0.33622517  0.14068321     0.13500
C1060       C  0.43233742  0.33967898  0.17093718    -0.20900
C1061       C  0.43843514  0.32364267  0.18964430    -0.07400
C1062       C  0.44227908  0.30240989  0.17804506     0.13500
C1063       C  0.44799407  0.28406765  0.19735771    -0.24200
H1064       H  0.44755980  0.28469591  0.13866236     0.14800
H1065       H  0.42911408  0.35573920  0.18001508     0.14800
C1066       C  0.42619113  0.35463728  0.12131778    -0.24200
H1067       H  0.45171013  0.26940201  0.18457450     0.05000
H1068       H  0.42986176  0.27158462  0.21179867     0.08200
H1069       H  0.46674290  0.29706988  0.21078546     0.08200
H1070       H  0.40757289  0.34165618  0.10765807     0.08200
H1071       H  0.44443557  0.36733828  0.10706771     0.08200
H1072       H  0.42211010  0.36905211  0.13411630     0.05000
C1073       C  0.76393728  0.55851179  0.44670922    -0.20800
C1074       C  0.74341499  0.53659635  0.42995449    -0.07400
C1075       C  0.74917385  0.51637461  0.41872556     0.13500
C1076       C  0.77443305  0.51792907  0.42577366    -0.20900
C1077       C  0.79471051  0.53948688  0.44301205    -0.07400
C1078       C  0.78953814  0.56040515  0.45314602     0.13500
C1079       C  0.81134515  0.58322641  0.96895940    -0.24200
H1080       H  0.75979764  0.57416018  0.45516659     0.14800
H1081       H  0.77854189  0.50221550  0.41739344     0.14800
C1082       C  0.72944103  0.49359320  0.39841610    -0.24200
H1083       H  0.80383627  0.59740380  0.97559333     0.05000
H1084       H  0.83032273  0.59551627  0.95557378     0.08200
H1085       H  0.81665852  0.57582465  0.98900805     0.08200
H1086       H  0.72466544  0.50278470  0.37945547     0.08200
H1087       H  0.70994575  0.47890566  0.40997361     0.08200
H1088       H  0.73852103  0.48130251  0.38993520     0.05000
C1089       C  0.59827398  0.58846908  0.44514526    -0.20800
C1090       C  0.62077748  0.59344518  0.42728045    -0.07400
C1091       C  0.62990571  0.61432531  0.40560890     0.13500
C1092       C  0.61562104  0.62887473  0.40175062    -0.20900
C1093       C  0.59236033  0.62287068  0.41881265    -0.07400
C1094       C  0.58404274  0.60292365  0.44130904     0.13500
C1095       C  0.56039773  0.59705343  0.46162990    -0.24200
H1096       H  0.59152606  0.57282345  0.46208267     0.14800
H1097       H  0.62181221  0.64407607  0.38446001     0.14800
C1098       C  0.65357909  0.62027959  0.38544109    -0.24200
H1099       H  0.55778025  0.58201897  0.47892134     0.05000
H1100       H  0.54046583  0.58805394  0.44952640     0.08200
H1101       H  0.56463254  0.61660453  0.47236099     0.08200
H1102       H  0.64889211  0.60100484  0.37378439     0.08200
H1103       H  0.67314209  0.62813964  0.39802758     0.08200
H1104       H  0.65701416  0.63624086  0.36893984     0.05000
C1105       C  0.60932107  0.43392758  0.49604833    -0.20800
C1106       C  0.60908305  0.43743907  0.46588696    -0.07400
C1107       C  0.58844770  0.41547639  0.44887329     0.13500
C1108       C  0.56582558  0.39311836  0.46283368    -0.20900
C1109       C  0.56384087  0.39185840  0.49322281    -0.07400
C1110       C  0.58678164  0.41438928  0.01214008     0.13500
C1111       C  0.58672722  0.41393272  0.04493445    -0.24200
H1112       H  0.62360277  0.45509116  0.01034037     0.14800
H1113       H  0.54839184  0.37788606  0.44999363     0.14800
C1114       C  0.58856975  0.41669135  0.41613073    -0.24200
H1115       H  0.60546896  0.43230848  0.05413919     0.05000
H1116       H  0.58650791  0.39500354  0.05265125     0.08200
H1117       H  0.56824683  0.41398326  0.05355592     0.08200
H1118       H  0.60790864  0.41817031  0.40764241     0.08200
H1119       H  0.58748049  0.43496132  0.40886250     0.08200
H1120       H  0.57054154  0.39792635  0.40649877     0.05000
C1121       C  0.54923310  0.44843987  0.38654613    -0.20800
C1122       C  0.57312960  0.46987163  0.37297790    -0.07400
C1123       C  0.57432501  0.47147027  0.34227286     0.13500
C1124       C  0.55319997  0.44983601  0.32608508    -0.20900
C1125       C  0.53132701  0.42640371  0.33975485    -0.07400
C1126       C  0.52845806  0.42633345  0.37036615     0.13500
C1127       C  0.50405975  0.40294846  0.38623327    -0.24200
H1128       H  0.54798285  0.44760886  0.41009814     0.14800
H1129       H  0.55507002  0.45027748  0.30258982     0.14800
C1130       C  0.59797995  0.49554204  0.32632488    -0.24200
H1131       H  0.50415693  0.40770862  0.40970665     0.05000
H1132       H  0.50482285  0.38353610  0.38485258     0.08200
H1133       H  0.48422957  0.39949389  0.37675679     0.08200
H1134       H  0.61755477  0.49516554  0.32881165     0.08200
H1135       H  0.60094663  0.51547391  0.33480356     0.08200
H1136       H  0.59371750  0.49475695  0.30264475     0.05000
C1137       C  0.74614538  0.51462199  0.17097727    -0.20800
C1138       C  0.74287623  0.53600378  0.18273247    -0.07400
C1139       C  0.76477933  0.55700689  0.19954213     0.13500
C1140       C  0.78926427  0.55617519  0.20369607    -0.20900
C1141       C  0.79247131  0.53475744  0.19203324    -0.07400
C1142       C  0.77043791  0.51352484  0.17552607     0.13500
C1143       C  0.77226528  0.48981237  0.16221482    -0.24200
H1144       H  0.72948824  0.49854783  0.15799420     0.14800
H1145       H  0.80589181  0.57215803  0.21676810     0.14800
C1146       C  0.76231878  0.57981724  0.21414376    -0.24200
H1147       H  0.75381965  0.47632122  0.14852127     0.05000
H1148       H  0.77320435  0.47650598  0.17955202     0.08200
H1149       H  0.79097307  0.49797013  0.14820357     0.08200
H1150       H  0.74350423  0.57060360  0.22811857     0.08200
H1151       H  0.76104790  0.59355967  0.19757780     0.08200
H1152       H  0.78059436  0.59303567  0.22816048     0.05000
C1153       C  0.60070826  0.58326759  0.14819396    -0.20800
C1154       C  0.62326236  0.59475909  0.16750041    -0.07400
C1155       C  0.63201188  0.62103195  0.18006879     0.13500
C1156       C  0.61676798  0.63430710  0.17432414    -0.20900
C1157       C  0.59295397  0.62176410  0.15653835    -0.07400
C1158       C  0.58542307  0.59627136  0.14251707     0.13500
C1159       C  0.56140666  0.58247499  0.12138784    -0.24200
H1160       H  0.59447055  0.56339457  0.13806399     0.14800
H1161       H  0.62271448  0.65391198  0.18479170     0.14800
C1162       C  0.65639445  0.63443910  0.20061704    -0.24200
H1163       H  0.56050302  0.56427278  0.11052823     0.05000
H1164       H  0.56373343  0.59745021  0.10418430     0.08200
H1165       H  0.54131966  0.57472283  0.13291696     0.08200
H1166       H  0.67567509  0.63875339  0.18908575     0.08200
H1167       H  0.65272969  0.62041762  0.21932185     0.08200
H1168       H  0.65968339  0.65445007  0.20925942     0.05000
C1169       C  0.59565038  0.41823837  0.20672650    -0.20800
C1170       C  0.61121349  0.44212580  0.22391506    -0.07400
C1171       C  0.60733024  0.44011257  0.25440373     0.13500
C1172       C  0.58482683  0.41596070  0.26613991    -0.20900
C1173       C  0.56584375  0.39445685  0.24792496    -0.07400
C1174       C  0.57249472  0.39450036  0.21835262     0.13500
C1175       C  0.55460622  0.37013794  0.19883568    -0.24200
H1176       H  0.59932368  0.41926872  0.18354199     0.14800
H1177       H  0.58020994  0.41541604  0.28908214     0.14800
C1178       C  0.62593279  0.46365272  0.27456691    -0.24200
H1179       H  0.56364721  0.37317963  0.17668588     0.05000
H1180       H  0.53350020  0.36725144  0.19658121     0.08200
H1181       H  0.55287875  0.35097398  0.20813405     0.08200
H1182       H  0.62316275  0.48174055  0.27131676     0.08200
H1183       H  0.64802452  0.46999473  0.27061317     0.08200
H1184       H  0.62115021  0.45739182  0.29773812     0.05000
C1185       C  0.66390803  0.56946835  0.32173375    -0.20800
C1186       C  0.68381551  0.56333803  0.33209883    -0.07400
C1187       C  0.70157665  0.56062241  0.31219604     0.13500
C1188       C  0.69826934  0.56310281  0.28229652    -0.20900
C1189       C  0.67662537  0.56659549  0.27175898    -0.07400
C1190       C  0.65964101  0.57056796  0.29180785     0.13500
C1191       C  0.63654249  0.57527740  0.28198626    -0.24200
H1192       H  0.65007148  0.57111404  0.33706447     0.14800
H1193       H  0.71111862  0.55984461  0.26702072     0.14800
C1194       C  0.72341806  0.55421399  0.32231439    -0.24200
H1195       H  0.62696916  0.58007079  0.30058971     0.05000
H1196       H  0.61970213  0.55637416  0.27131579     0.08200
H1197       H  0.64491134  0.59307555  0.26665299     0.08200
H1198       H  0.71341509  0.53332055  0.33249363     0.08200
H1199       H  0.73737443  0.57006686  0.33834005     0.08200
H1200       H  0.73639754  0.55425716  0.30396506     0.05000
C1201       C  0.69941481  0.55331136  0.06325043    -0.20800
C1202       C  0.68379721  0.56001164  0.08195056    -0.07400
C1203       C  0.66609195  0.56875543  0.07011781     0.13500
C1204       C  0.66376836  0.56966747  0.03983859    -0.20900
C1205       C  0.67863400  0.56204299  0.02115588    -0.07400
C1206       C  0.69719576  0.55437600  0.03293070     0.13500
C1207       C  0.71330126  0.54558371  0.01373484    -0.24200
H1208       H  0.71262393  0.54621578  0.07245632     0.14800
H1209       H  0.64936206  0.57521232  0.03065461     0.14800
C1210       C  0.64801762  0.57514029  0.08919108    -0.24200
H1211       H  0.72776327  0.56316606  0.99960331     0.05000
H1212       H  0.70426877  0.53799805  0.49228349     0.08200
H1213       H  0.70167967  0.51740896  0.52306697     0.08200
H1214       H  0.66125561  0.59314293  0.10345121     0.08200
H1215       H  0.63419734  0.55676358  0.10279516     0.08200
H1216       H  0.63460544  0.58048218  0.07618547     0.05000
C1217       C  0.52945907  0.42506863  0.11872742    -0.20800
C1218       C  0.53180127  0.42855993  0.08840899    -0.07400
C1219       C  0.55271127  0.45440157  0.07677611     0.13500
C1220       C  0.57312323  0.47403877  0.09550352    -0.20900
C1221       C  0.57245159  0.46894352  0.12542844    -0.07400
C1222       C  0.54941618  0.44498526  0.13742763     0.13500
C1223       C  0.54676525  0.43916257  0.16966183    -0.24200
H1224       H  0.51280005  0.40585549  0.12778736     0.14800
H1225       H  0.59039958  0.49294085  0.08662798     0.14800
C1226       C  0.55462891  0.46120641  0.04478312    -0.24200
H1227       H  0.52799079  0.41887376  0.17499786     0.05000
H1228       H  0.54505372  0.45559478  0.18137476     0.08200
H1229       H  0.56523345  0.43861782  0.17763055     0.08200
H1230       H  0.53514539  0.46023130  0.03759769     0.08200
H1231       H  0.55802881  0.44647741  0.03180850     0.08200
H1232       H  0.57216947  0.48247615  0.04003905     0.05000
C1233       C  0.51527416  0.77438492  0.40268010    -0.20800
C1234       C  0.53836758  0.79629939  0.38872675    -0.07400
C1235       C  0.56076286  0.79252082  0.38049057     0.13500
C1236       C  0.55935485  0.76711583  0.38665629    -0.20900
C1237       C  0.53624544  0.74524267  0.40085807    -0.07400
C1238       C  0.51385559  0.74914791  0.40899674     0.13500
C1239       C  0.48855847  0.72737768  0.42522425    -0.24200
H1240       H  0.49815906  0.77717792  0.40920801     0.14800
H1241       H  0.57645210  0.76429689  0.38019376     0.14800
C1242       C  0.58593890  0.81474670  0.36463015    -0.24200
H1243       H  0.47433826  0.73497482  0.43146087     0.05000
H1244       H  0.49508647  0.72154590  0.44555472     0.08200
H1245       H  0.47638634  0.70880316  0.41130269     0.08200
H1246       H  0.59764295  0.83321325  0.37880541     0.08200
H1247       H  0.57934277  0.82072859  0.34449724     0.08200
H1248       H  0.60043398  0.80751600  0.35830125     0.05000
C1249       C  0.52004093  0.77066405  0.12832595    -0.20800
C1250       C  0.53999319  0.79552338  0.14169275    -0.07400
C1251       C  0.55991680  0.79507901  0.16053857     0.13500
C1252       C  0.55889062  0.76980744  0.16584514    -0.20900
C1253       C  0.53856041  0.74493418  0.15293599    -0.07400
C1254       C  0.51912589  0.74546491  0.13349807     0.13500
C1255       C  0.49791010  0.71981119  0.11736624    -0.24200
H1256       H  0.50506807  0.77097330  0.11349333     0.14800
H1257       H  0.57376930  0.76935700  0.18069265     0.14800
C1258       C  0.58174043  0.82080317  0.17598014    -0.24200
H1259       H  0.48599342  0.72461546  0.10140309     0.05000
H1260       H  0.48264535  0.70427187  0.13280103     0.08200
H1261       H  0.50853799  0.71064916  0.10524161     0.08200
H1262       H  0.57161597  0.83006395  0.18874332     0.08200
H1263       H  0.59634287  0.83613974  0.15994887     0.08200
H1264       H  0.59426510  0.81613830  0.19125143     0.05000
C1265       C  0.57873586  0.90793914  0.28060856    -0.20800
C1266       C  0.56688021  0.88086693  0.29179084    -0.07400
C1267       C  0.55970944  0.85840552  0.27259623     0.13500
C1268       C  0.56168603  0.86315818  0.24256449    -0.20900
C1269       C  0.57035070  0.88965825  0.23148636    -0.07400
C1270       C  0.58040853  0.91256559  0.25049991     0.13500
C1271       C  0.59243743  0.94174129  0.23904652    -0.24200
H1272       H  0.58477920  0.92519630  0.29533196     0.14800
H1273       H  0.55431575  0.84577649  0.22777925     0.14800
C1274       C  0.54961100  0.82933027  0.28346235    -0.24200
H1275       H  0.60020375  0.95726970  0.25691347     0.05000
H1276       H  0.57640017  0.94379719  0.22688849     0.08200
H1277       H  0.61018020  0.94674154  0.22433331     0.08200
H1278       H  0.52915974  0.82072666  0.29442879     0.08200
H1279       H  0.56508585  0.82963087  0.29881934     0.08200
H1280       H  0.54693464  0.81498207  0.26539625     0.05000
C1281       C  0.55891834  0.85789766  0.02363422    -0.20800
C1282       C  0.56554070  0.88030388  0.04227690    -0.07400
C1283       C  0.57560820  0.90714286  0.03044785     0.13500
C1284       C  0.57494124  0.91024543  0.49998527    -0.20900
C1285       C  0.56737080  0.88749742  0.48158033    -0.07400
C1286       C  0.56143784  0.86176818  0.49359216     0.13500
C1287       C  0.55394527  0.83694797  0.47457801    -0.24200
H1288       H  0.55147514  0.83743809  0.03282606     0.14800
H1289       H  0.57960072  0.92995522  0.49059531     0.14800
C1290       C  0.58340030  0.93201517  0.04945659    -0.24200
H1291       H  0.54919133  0.81831853  0.48764190     0.05000
H1292       H  0.57165467  0.84160741  0.45997631     0.08200
H1293       H  0.53531229  0.83180826  0.46126836     0.08200
H1294       H  0.60126157  0.93621518  0.06358592     0.08200
H1295       H  0.56533367  0.92787224  0.06312982     0.08200
H1296       H  0.58954688  0.95105066  0.03647170     0.05000
C1297       C  0.76369345  0.21275628  0.35008668    -0.20800
C1298       C  0.74313583  0.21472415  0.36577587    -0.07400
C1299       C  0.74806409  0.24148669  0.37349731     0.13500
C1300       C  0.77311497  0.26514309  0.36514867    -0.20900
C1301       C  0.79336246  0.26311943  0.34899569    -0.07400
C1302       C  0.78849702  0.23647252  0.34128693     0.13500
C1303       C  0.80856978  0.23265273  0.32266417    -0.24200
H1304       H  0.76004146  0.19246906  0.34389453     0.14800
H1305       H  0.77693124  0.28550570  0.37133503     0.14800
C1306       C  0.72747733  0.24569896  0.39077169    -0.24200
H1307       H  0.80028470  0.21047583  0.31703746     0.05000
H1308       H  0.82846803  0.23998757  0.33444728     0.08200
H1309       H  0.81245375  0.24436380  0.30199845     0.08200
H1310       H  0.72258635  0.23405470  0.41158505     0.08200
H1311       H  0.70815808  0.23866062  0.37796096     0.08200
H1312       H  0.73577461  0.26793547  0.39614109     0.05000
C1313       C  0.63233357  0.01931185  0.36664106    -0.20800
C1314       C  0.62104266  0.03474856  0.37821350    -0.07400
C1315       C  0.59732486  0.02122092  0.39644646     0.13500
C1316       C  0.58501139  0.99267446  0.40153788    -0.20900
C1317       C  0.59496547  0.97666394  0.38842227    -0.07400
C1318       C  0.61947537  0.99037966  0.37125570     0.13500
C1319       C  0.63163045  0.97473224  0.35681686    -0.24200
H1320       H  0.65065406  0.02974275  0.35292882     0.14800
H1321       H  0.56676668  0.98259713  0.41535603     0.14800
C1322       C  0.58451942  0.03647044  0.41071263    -0.24200
H1323       H  0.65026687  0.98867847  0.34357710     0.05000
H1324       H  0.61595737  0.95854866  0.34214528     0.08200
H1325       H  0.63814475  0.96488649  0.37357682     0.08200
H1326       H  0.57505581  0.04350277  0.39406522     0.08200
H1327       H  0.60049541  0.05464596  0.42300507     0.08200
H1328       H  0.56774310  0.02301989  0.42622818     0.05000
C1329       C  0.74237429  0.23364617  0.10014779    -0.20800
C1330       C  0.74447574  0.21176255  0.11249578    -0.07400
C1331       C  0.77142097  0.21550539  0.11655869     0.13500
C1332       C  0.79506415  0.24097606  0.10885889    -0.20900
C1333       C  0.79294035  0.26307454  0.09709398    -0.07400
C1334       C  0.76594560  0.25906283  0.09242297     0.13500
C1335       C  0.76134724  0.28104452  0.07894657    -0.24200
H1336       H  0.72191501  0.23088415  0.09638642     0.14800
H1337       H  0.81552875  0.24373396  0.11251518     0.14800
C1338       C  0.77581186  0.19322497  0.12950332    -0.24200
H1339       H  0.73888966  0.27351014  0.07552559     0.05000
H1340       H  0.77171051  0.28719137  0.05738525     0.08200
H1341       H  0.76958470  0.29941296  0.09347712     0.08200
H1342       H  0.76665947  0.17474151  0.11506629     0.08200
H1343       H  0.76611304  0.18738773  0.15139849     0.08200
H1344       H  0.79826565  0.20031115  0.13203763     0.05000
C1345       C  0.59646020  0.01450909  0.10791136    -0.20800
C1346       C  0.62343412  0.03140891  0.11899503    -0.07400
C1347       C  0.63654879  0.01873346  0.13352797     0.13500
C1348       C  0.62143141  0.98979214  0.13833956    -0.20900
C1349       C  0.59353163  0.97346484  0.12945648    -0.07400
C1350       C  0.58119551  0.98597183  0.11322504     0.13500
C1351       C  0.55177710  0.96971455  0.10158617    -0.24200
H1352       H  0.58667525  0.02392207  0.09580559     0.14800
H1353       H  0.63099524  0.98008775  0.15030463     0.14800
C1354       C  0.66582064  0.03549326  0.14507950    -0.24200
H1355       H  0.54686406  0.98252126  0.08704003     0.05000
H1356       H  0.53657372  0.96255609  0.11973300     0.08200
H1357       H  0.54879529  0.95158033  0.08886486     0.08200
H1358       H  0.66726580  0.05129196  0.16075123     0.08200
H1359       H  0.68056472  0.04593054  0.12683327     0.08200
H1360       H  0.67232620  0.02221232  0.15654060     0.05000
C1361       C  0.66748941  0.09940126  0.00722500    -0.20800
C1362       C  0.67967588  0.12225316  0.02606791    -0.07400
C1363       C  0.69566159  0.14937269  0.01461001     0.13500
C1364       C  0.70244426  0.15163968  0.48532452    -0.20900
C1365       C  0.68818632  0.12881230  0.46655178    -0.07400
C1366       C  0.67251967  0.10175913  0.47851608     0.13500
C1367       C  0.65722071  0.07639315  0.45955893    -0.24200
H1368       H  0.65490861  0.07871119  0.01627834     0.14800
H1369       H  0.71451526  0.17234855  0.47616781     0.14800
C1370       C  0.70802785  0.17464032  0.03405352    -0.24200
H1371       H  0.64500739  0.05712651  0.47256317     0.05000
H1372       H  0.67231252  0.07387119  0.44610537     0.08200
H1373       H  0.64260331  0.07872262  0.44520790     0.08200
H1374       H  0.72341397  0.17428064  0.04907879     0.08200
H1375       H  0.69129272  0.17489662  0.04690702     0.08200
H1376       H  0.71889429  0.19426064  0.02135599     0.05000
C1377       C  0.66455989  0.10048068  0.22658472    -0.20800
C1378       C  0.68522160  0.12609878  0.21528304    -0.07400
C1379       C  0.70378023  0.14706515  0.23455617     0.13500
C1380       C  0.69950840  0.14296874  0.26472439    -0.20900
C1381       C  0.67698022  0.11845960  0.27599797    -0.07400
C1382       C  0.66018090  0.09637786  0.25673959     0.13500
C1383       C  0.63769261  0.06844785  0.26781427    -0.24200
H1384       H  0.65068737  0.08421136  0.21174489     0.14800
H1385       H  0.71287898  0.15960157  0.27947070     0.14800
C1386       C  0.72809877  0.17373860  0.22330811    -0.24200
H1387       H  0.62811913  0.05309671  0.24989860     0.05000
H1388       H  0.62081475  0.07024460  0.27839331     0.08200
H1389       H  0.64672476  0.06019616  0.28366562     0.08200
H1390       H  0.72069947  0.18568573  0.21075662     0.08200
H1391       H  0.74119423  0.16893336  0.20907279     0.08200
H1392       H  0.74137249  0.18720348  0.24131849     0.05000
C1393       C  0.44646098  0.23551241  0.28959070    -0.20800
C1394       C  0.46788306  0.26034609  0.27755364    -0.07400
C1395       C  0.48875012  0.25962255  0.26062697     0.13500
C1396       C  0.48733125  0.23413489  0.25601555    -0.20900
C1397       C  0.46607675  0.20928537  0.26825929    -0.07400
C1398       C  0.44544714  0.21008111  0.28553082     0.13500
C1399       C  0.42300962  0.18463078  0.30083202    -0.24200
H1400       H  0.43081264  0.23614071  0.30301752     0.14800
H1401       H  0.50316213  0.23366897  0.24277390     0.14800
C1402       C  0.51252663  0.28540157  0.24700964    -0.24200
H1403       H  0.40996669  0.18959467  0.31496710     0.05000
H1404       H  0.43261773  0.17557962  0.31481045     0.08200
H1405       H  0.40900298  0.16901957  0.28467179     0.08200
H1406       H  0.52636437  0.29974184  0.26416091     0.08200
H1407       H  0.50438599  0.29607375  0.23339968     0.08200
H1408       H  0.52556003  0.28043777  0.23286224     0.05000
C1409       C  0.57798511  0.10772828  0.20504685    -0.20800
C1410       C  0.57545499  0.10866719  0.17473965    -0.07400
C1411       C  0.55125763  0.10724847  0.16305367     0.13500
C1412       C  0.53191581  0.10798752  0.18198200    -0.20900
C1413       C  0.53572395  0.10957913  0.21226543    -0.07400
C1414       C  0.55829837  0.10781561  0.22401647     0.13500
C1415       C  0.56271079  0.10733541  0.25634482    -0.24200
H1416       H  0.59620215  0.10813862  0.21397398     0.14800
H1417       H  0.51420945  0.10851795  0.17298067     0.14800
C1418       C  0.54636596  0.10666992  0.13073971    -0.24200
H1419       H  0.58186165  0.10669079  0.26136682     0.05000
H1420       H  0.54481572  0.08854479  0.26605512     0.08200
H1421       H  0.56480046  0.12613893  0.26683850     0.08200
H1422       H  0.56378297  0.12528184  0.12032103     0.08200
H1423       H  0.54465778  0.08762960  0.12116957     0.08200
H1424       H  0.52682491  0.10653115  0.12562818     0.05000
C1425       C  0.56623545  0.17764043  0.33731515    -0.20800
C1426       C  0.56465939  0.17742931  0.30685933    -0.07400
C1427       C  0.58838037  0.18262411  0.29048855     0.13500
C1428       C  0.61020424  0.18160297  0.30458646    -0.20900
C1429       C  0.60949767  0.17710722  0.33467230    -0.07400
C1430       C  0.58866243  0.17796616  0.35151844     0.13500
C1431       C  0.58848410  0.17671004  0.38425778    -0.24200
H1432       H  0.54860403  0.17492515  0.34997821     0.14800
H1433       H  0.62683110  0.18218337  0.29178778     0.14800
C1434       C  0.59006212  0.18719920  0.25804411    -0.24200
H1435       H  0.57038754  0.17716600  0.39370930     0.05000
H1436       H  0.60775167  0.19483156  0.39292618     0.08200
H1437       H  0.58731676  0.15729528  0.39153589     0.08200
H1438       H  0.58793253  0.20547319  0.25306788     0.08200
H1439       H  0.57342420  0.16867088  0.24670258     0.08200
H1440       H  0.61033804  0.19135099  0.24912299     0.05000
C1441       C  0.44741510  0.23937403  0.01319997    -0.20800
C1442       C  0.46683048  0.25866386  0.03294183    -0.07400
C1443       C  0.48455267  0.25179338  0.04832687     0.13500
C1444       C  0.48320115  0.22650386  0.04251714    -0.20900
C1445       C  0.46433056  0.20757943  0.02221546    -0.07400
C1446       C  0.44583864  0.21389362  0.00770611     0.13500
C1447       C  0.42517057  0.19445606  0.98561726    -0.24200
H1448       H  0.43367480  0.24449390  0.00158196     0.24400
H1449       H  0.50222529  0.22421507  0.54592913     0.14800
C1450       C  0.51080366  0.27392215  0.56184139    -0.24200
H1451       H  0.43627708  0.19010094  0.96838370     0.05000
H1452       H  0.41358238  0.20346845  0.97514604     0.08200
H1453       H  0.40971921  0.17472438  0.99625617     0.08200
H1454       H  0.49270733  0.27490174  0.08823465     0.08200
H1455       H  0.52527452  0.29281705  0.54931541     0.08200
H1456       H  0.52334957  0.26542556  0.57109399     0.05000
C1457       C  0.55139966  0.10487737  0.41392723    -0.20800
C1458       C  0.57528968  0.10772635  0.42750797    -0.07400
C1459       C  0.57590001  0.10609167  0.45819672     0.13500
C1460       C  0.55433325  0.10546925  0.47442544    -0.20900
C1461       C  0.53265049  0.10706733  0.46077930    -0.07400
C1462       C  0.53023710  0.10505844  0.43011981     0.13500
C1463       C  0.50589915  0.10373343  0.41418783    -0.24200
H1464       H  0.55038348  0.10506661  0.39038382     0.14800
H1465       H  0.55570749  0.10606664  0.49796418     0.14800
C1466       C  0.59926085  0.10544497  0.47408876    -0.24200
H1467       H  0.50632111  0.09958589  0.39061942     0.05000
H1468       H  0.50641398  0.12377531  0.41598036     0.08200
H1469       H  0.48603803  0.08672638  0.42326149     0.08200
H1470       H  0.61891316  0.12572137  0.47222824     0.08200
H1471       H  0.60222516  0.08870532  0.46504942     0.08200
H1472       H  0.59606771  0.10482243  0.99786751     0.05000
C1473       C  0.59355869  0.17860833  0.09698090    -0.20800
C1474       C  0.61077692  0.17372961  0.07858565    -0.07400
C1475       C  0.60751005  0.17425529  0.04812389     0.13500
C1476       C  0.58444307  0.17504775  0.03717295    -0.20900
C1477       C  0.56427461  0.17447594  0.05594888    -0.07400
C1478       C  0.56995020  0.17844508  0.08606372     0.13500
C1479       C  0.55073521  0.18149493  0.10681281    -0.24200
H1480       H  0.59659203  0.17923905  0.12031944     0.14800
H1481       H  0.58059430  0.17292799  0.01392441     0.14800
C1482       C  0.62764178  0.17304089  0.02709534    -0.24200
H1483       H  0.55931848  0.18613162  0.12924463     0.05000
H1484       H  0.53018914  0.16205698  0.10780152     0.08200
H1485       H  0.54791232  0.19887221  0.09960491     0.08200
H1486       H  0.62658045  0.15272616  0.02836796     0.08200
H1487       H  0.64915862  0.18997380  0.03207548     0.08200
H1488       H  0.62292270  0.17570167  0.00425005     0.05000
C1489       C  0.44371396  0.14097707  0.37085620    -0.20800
C1490       C  0.43823733  0.11527409  0.35997644    -0.07400
C1491       C  0.43000680  0.09269628  0.37923486     0.13500
C1492       C  0.43010003  0.09718151  0.40927471    -0.20900
C1493       C  0.43878574  0.12378852  0.42033027    -0.07400
C1494       C  0.44424479  0.14560474  0.40085265     0.13500
C1495       C  0.45055045  0.17374736  0.41142850    -0.24200
H1496       H  0.44937279  0.15803476  0.35591411     0.14800
H1497       H  0.42540817  0.08032770  0.42421195     0.14800
C1498       C  0.42146824  0.06402407  0.36823920    -0.24200
H1499       H  0.45302181  0.18776443  0.39308285     0.05000
H1500       H  0.47015849  0.18408413  0.42412691     0.08200
H1501       H  0.43302470  0.17123099  0.42504433     0.08200
H1502       H  0.43935315  0.06404592  0.35768608     0.08200
H1503       H  0.40422311  0.05718208  0.35231363     0.08200
H1504       H  0.41411170  0.04857186  0.38618513     0.05000
C1505       C  0.43342377  0.09348143  0.12887766    -0.20800
C1506       C  0.43709478  0.11500689  0.11024256    -0.07400
C1507       C  0.44030521  0.13980271  0.12218327     0.13500
C1508       C  0.44133378  0.14299095  0.15251763    -0.20900
C1509       C  0.43939536  0.12211646  0.17099781    -0.07400
C1510       C  0.43475337  0.09679262  0.15913520     0.13500
C1511       C  0.43359342  0.07418696  0.17813237    -0.24200
H1512       H  0.43123192  0.07461602  0.11962364     0.14800
H1513       H  0.44521879  0.16246213  0.16185762     0.14800
C1514       C  0.44495468  0.16379728  0.10317405    -0.24200
H1515       H  0.43097246  0.05627125  0.16510496     0.05000
H1516       H  0.41571702  0.06638149  0.19335797     0.08200
H1517       H  0.45322356  0.08245106  0.19075531     0.08200
H1518       H  0.42657045  0.15735621  0.08897463     0.08200
H1519       H  0.46378103  0.17070918  0.08950867     0.08200
H1520       H  0.44808608  0.18188474  0.11624072     0.05000
C1521       C  0.26305012  0.77047431  0.47949465    -0.20800
C1522       C  0.26153302  0.79323736  0.49008852    -0.07400
C1523       C  0.23490327  0.79045655  0.49339200     0.13500
C1524       C  0.21091401  0.76499807  0.48671834    -0.20900
C1525       C  0.21242207  0.74205575  0.47667685    -0.07400
C1526       C  0.23911526  0.74509192  0.47265822     0.13500
C1527       C  0.24306099  0.72214913  0.46071310    -0.24200
H1528       H  0.28328207  0.77253800  0.47634293     0.14800
H1529       H  0.19069202  0.76297242  0.48971335     0.14800
C1530       C  0.23113947  0.81377433  0.50440859    -0.24200
H1531       H  0.26540320  0.72902440  0.45757410     0.05000
H1532       H  0.23271811  0.71532892  0.43919756     0.08200
H1533       H  0.23443276  0.70436731  0.47608344     0.08200
H1534       H  0.24051062  0.83142835  0.48886786     0.08200
H1535       H  0.24770983  0.80863868  0.04584201     0.08200
H1536       H  0.20881189  0.80728621  0.50668570     0.05000
C1537       C  0.39384452  0.01926970  0.48951165    -0.20800
C1538       C  0.41193734  0.02958646  0.01498716    -0.07400
C1539       C  0.41481642  0.01092085  0.03345329     0.13500
C1540       C  0.40020946  0.98250185  0.02694324    -0.20900
C1541       C  0.38245257  0.97214722  0.00283051    -0.07400
C1542       C  0.37959359  0.99086276  0.48236622     0.13500
C1543       C  0.36327800  0.98118066  0.45444519    -0.24200
H1544       H  0.39285499  0.03402309  0.47495370     0.14800
H1545       H  0.40300784  0.96823329  0.04051335     0.14800
C1546       C  0.43280608  0.02066178  0.06036827    -0.24200
H1547       H  0.36416478  0.99872281  0.44213402     0.05000
H1548       H  0.34111663  0.96592281  0.45926967     0.08200
H1549       H  0.37193503  0.97121421  0.44040719     0.08200
H1550       H  0.42650105  0.03268805  0.07442292     0.08200
H1551       H  0.45506665  0.03380594  0.05435389     0.08200
H1552       H  0.43073865  0.00293377  0.07334794     0.05000
C1553       C  0.47475309  0.89878384  0.05703082    -0.20800
C1554       C  0.47146971  0.89762004  0.08733782    -0.07400
C1555       C  0.44963394  0.90044715  0.09944049     0.13500
C1556       C  0.42908550  0.89935345  0.08085647    -0.20900
C1557       C  0.43080376  0.89731681  0.05056598    -0.07400
C1558       C  0.45520279  0.89948086  0.03845948     0.13500
C1559       C  0.46117157  0.90228790  0.50340670    -0.24200
H1560       H  0.49229929  0.89816400  0.04776957     0.14800
H1561       H  0.41109431  0.89916763  0.09004999     0.14800
C1562       C  0.44712642  0.90365636  0.13169986    -0.24200
H1563       H  0.48110209  0.90328907  0.49814548     0.05000
H1564       H  0.46216017  0.92110720  0.49412355     0.08200
H1565       H  0.44422282  0.88354404  0.49268438     0.08200
H1566       H  0.46594067  0.92279044  0.13953625     0.08200
H1567       H  0.44491071  0.88547685  0.14373161     0.08200
H1568       H  0.42873562  0.90557591  0.13696712     0.05000
C1569       C  0.43614329  0.82680022  0.45639553    -0.20800
C1570       C  0.43962344  0.83044096  0.42619059    -0.07400
C1571       C  0.41759902  0.82893292  0.40933885     0.13500
C1572       C  0.39579777  0.82989328  0.42349856    -0.20900
C1573       C  0.39465195  0.83062773  0.45394738    -0.07400
C1574       C  0.41333844  0.82591122  0.47046920     0.13500
C1575       C  0.41157466  0.82285333  0.00384686    -0.24200
H1576       H  0.45240740  0.82668746  0.46925179     0.14800
H1577       H  0.38070781  0.83214354  0.41074613     0.14800
C1578       C  0.41777304  0.82828984  0.37654513    -0.24200
H1579       H  0.42838013  0.81995974  0.01296123     0.05000
H1580       H  0.39133257  0.80401540  0.00910782     0.08200
H1581       H  0.41270683  0.84102958  0.01482758     0.08200
H1582       H  0.41824496  0.80963533  0.36912354     0.08200
H1583       H  0.43614896  0.84711993  0.36777882     0.08200
H1584       H  0.39892887  0.82728918  0.36716279     0.05000
C1585       C  0.26274243  0.77067758  0.22692266    -0.20800
C1586       C  0.26110256  0.79213453  0.24090499    -0.07400
C1587       C  0.23446872  0.78801475  0.24788785     0.13500
C1588       C  0.21053656  0.76254428  0.24113145    -0.20900
C1589       C  0.21218942  0.74107159  0.22718013    -0.07400
C1590       C  0.23879912  0.74542739  0.21964617     0.13500
C1591       C  0.24242470  0.72421446  0.20297783    -0.24200
H1592       H  0.28299153  0.77387591  0.22109507     0.14800
H1593       H  0.19028169  0.75937632  0.24690297     0.14800
C1594       C  0.23079533  0.80994118  0.26291392    -0.24200
H1595       H  0.26456016  0.73213459  0.19723602     0.05000
H1596       H  0.23039194  0.71889824  0.18236973     0.08200
H1597       H  0.23535782  0.70524094  0.21632927     0.08200
H1598       H  0.23810885  0.82833546  0.24856363     0.08200
H1599       H  0.24261226  0.81610761  0.28366999     0.08200
H1600       H  0.20860886  0.80235850  0.26809837     0.05000
C1601       C  0.40398190  0.98321078  0.27187892    -0.20800
C1602       C  0.38020035  0.97203284  0.25430063    -0.07400
C1603       C  0.37038041  0.98952988  0.24455019     0.13500
C1604       C  0.38610308  0.01825450  0.25069716    -0.20900
C1605       C  0.41133883  0.02976424  0.26626542    -0.07400
C1606       C  0.41969289  0.01160734  0.27797279     0.13500
C1607       C  0.44512000  0.02160004  0.29700521    -0.24200
H1608       H  0.41086353  0.96955811  0.28030313     0.14800
H1609       H  0.37924699  0.03190662  0.24226409     0.14800
C1610       C  0.34420902  0.97834480  0.22670198    -0.24200
H1611       H  0.44651676  0.00403969  0.30642537     0.05000
H1612       H  0.44427422  0.03403375  0.31538119     0.08200
H1613       H  0.46436158  0.03416870  0.28408816     0.08200
H1614       H  0.32610240  0.96279025  0.23957040     0.08200
H1615       H  0.34616574  0.96843773  0.20662024     0.08200
H1616       H  0.34006329  0.99505458  0.22020775     0.05000
C1617       C  0.43010894  0.90254979  0.32935729    -0.20800
C1618       C  0.43171688  0.90049496  0.29908957    -0.07400
C1619       C  0.45602563  0.90261598  0.28682129     0.13500
C1620       C  0.47571262  0.90201446  0.30529429    -0.20900
C1621       C  0.47251693  0.90082259  0.33565024    -0.07400
C1622       C  0.45067895  0.90360495  0.34784234     0.13500
C1623       C  0.44806989  0.90656624  0.38013397    -0.24200
H1624       H  0.41206830  0.90221824  0.33862637     0.14800
H1625       H  0.49317203  0.90130598  0.29591774     0.14800
C1626       C  0.46095260  0.90427517  0.25440234    -0.24200
H1627       H  0.42971136  0.90853112  0.38542825     0.05000
H1628       H  0.46688770  0.92560301  0.38813111     0.08200
H1629       H  0.44569600  0.88824328  0.39202143     0.08200
H1630       H  0.46221092  0.92342116  0.24573230     0.08200
H1631       H  0.44391415  0.88596211  0.24322371     0.08200
H1632       H  0.48076951  0.90512843  0.24891484     0.05000
C1633       C  0.30168554  0.85642011  0.35938936    -0.20800
C1634       C  0.31952839  0.87818556  0.34085946    -0.07400
C1635       C  0.33927358  0.90425474  0.35260106     0.13500
C1636       C  0.34179216  0.90739056  0.38280907    -0.20900
C1637       C  0.32511469  0.88516613  0.40144498    -0.07400
C1638       C  0.30406055  0.85961870  0.38968653     0.13500
C1639       C  0.28537631  0.83513879  0.40876835    -0.24200
H1640       H  0.28671962  0.83646562  0.35007709     0.14800
H1641       H  0.35783355  0.92692714  0.39198434     0.14800
C1642       C  0.35914481  0.92815514  0.33346686    -0.24200
H1643       H  0.27079718  0.81662746  0.39574542     0.05000
H1644       H  0.27268730  0.84047381  0.42298898     0.08200
H1645       H  0.29810309  0.82937684  0.42240880     0.08200
H1646       H  0.34731049  0.93438569  0.31901945     0.08200
H1647       H  0.37162803  0.92193480  0.32002243     0.08200
H1648       H  0.37384529  0.94665261  0.34643061     0.05000
C1649       C  0.34176660  0.90755775  0.13328174    -0.20800
C1650       C  0.32474502  0.88538898  0.15180491    -0.07400
C1651       C  0.30349524  0.86003921  0.13990484     0.13500
C1652       C  0.30131181  0.85690391  0.10955672    -0.20900
C1653       C  0.31958324  0.87858287  0.09111703    -0.07400
C1654       C  0.33944545  0.90451611  0.10305364     0.13500
C1655       C  0.35970734  0.92837346  0.08414366    -0.24200
H1656       H  0.35792066  0.92694755  0.14256692     0.14800
H1657       H  0.28616781  0.83708679  0.10017078     0.14800
C1658       C  0.28439748  0.83567836  0.15892179    -0.24200
H1659       H  0.37452869  0.94669865  0.09724450     0.05000
H1660       H  0.34821937  0.93498726  0.06965391     0.08200
H1661       H  0.37204213  0.92191197  0.07078373     0.08200
H1662       H  0.27189156  0.84133085  0.17304420     0.08200
H1663       H  0.29679631  0.82958823  0.17267918     0.08200
H1664       H  0.26966019  0.81729056  0.14584386     0.05000
C1665       C  0.43809568  0.82846794  0.20975863    -0.20800
C1666       C  0.44135630  0.83050598  0.17943642    -0.07400
C1667       C  0.41927637  0.82837367  0.16213393     0.13500
C1668       C  0.39771168  0.83031483  0.17559010    -0.20900
C1669       C  0.39653355  0.83212681  0.20590458    -0.07400
C1670       C  0.41531958  0.82819433  0.22321143     0.13500
C1671       C  0.41260034  0.82544066  0.25586666    -0.24200
H1672       H  0.45439147  0.82892599  0.22306746     0.14800
H1673       H  0.38263547  0.83211709  0.16231762     0.14800
C1674       C  0.41911577  0.82598334  0.12945350    -0.24200
H1675       H  0.42929944  0.82279345  0.26570207     0.05000
H1676       H  0.39228790  0.80688567  0.26157664     0.08200
H1677       H  0.41383128  0.84408771  0.26577891     0.08200
H1678       H  0.41948329  0.80695154  0.12337010     0.08200
H1679       H  0.43738096  0.84432641  0.11983598     0.08200
H1680       H  0.40019253  0.82450811  0.11968896     0.05000
Fe1681     Fe  0.31865262  0.88392419  0.74671992     1.65800
Fe1682     Fe  0.38246957  0.89867304  0.72355321     1.73200
Fe1683     Fe  0.34658361  0.84623764  0.77119141     1.54400
O1684       O  0.32571376  0.85306033  0.80441250    -0.82200
O1685       O  0.38120207  0.86444722  0.70521430    -0.80500
O1686       O  0.32102720  0.88878414  0.79121835    -0.84700
O1687       O  0.28822602  0.84220423  0.74973952    -0.79500
O1688       O  0.38340611  0.87282615  0.79192160    -0.81300
O1689       O  0.35959546  0.89946180  0.68834566    -0.84100
C1690       C  0.28784454  0.81932976  0.74814791     0.96700
C1691       C  0.32208064  0.87314364  0.81052714     1.04100
O1692       O  0.34927791  0.87623941  0.74696464    -1.13000
O1693       O  0.38729960  0.93475217  0.74028787    -0.75500
O1694       O  0.34409241  0.92682591  0.74375462    -0.79000
O1695       O  0.30969223  0.81795157  0.75186460    -0.79700
C1696       C  0.37026671  0.94296788  0.74482128     0.95600
O1697       O  0.31508122  0.87971578  0.70219000    -0.77600
O1698       O  0.40940864  0.90043946  0.75574335    -0.82800
C1699       C  0.37967322  0.84354968  0.71789584     0.98200
C1700       C  0.40681441  0.89078539  0.78132153     1.04100
O1701       O  0.36803180  0.83511123  0.74248104    -0.78500
C1702       C  0.33379020  0.88864186  0.68268735     1.02400
Fe1703     Fe  0.31847171  0.88363794  0.99684269     1.65800
Fe1704     Fe  0.38229570  0.89810020  0.97472141     1.73200
Fe1705     Fe  0.34662164  0.84632626  0.52069730     1.54400
O1706       O  0.32524938  0.85298940  0.55364451    -0.82200
O1707       O  0.38052102  0.86391631  0.95571177    -0.80500
O1708       O  0.32134679  0.88914667  0.54051949    -0.84700
O1709       O  0.28748926  0.84195959  0.00051054    -0.79500
O1710       O  0.38326807  0.87346615  0.54140954    -0.81300
O1711       O  0.35992945  0.89992845  0.93948281    -0.84100
C1712       C  0.28693164  0.81900243  0.99825378     0.96700
C1713       C  0.32193889  0.87327864  0.55984732     1.04100
O1714       O  0.34878455  0.87560141  0.99750695    -1.13000
O1715       O  0.38761772  0.93406968  0.99228933    -0.75500
O1716       O  0.34450905  0.92664437  0.99333106    -0.79000
O1717       O  0.30999551  0.81781402  0.50094600    -0.79700
C1718       C  0.37049904  0.94269045  0.49339032     0.95600
O1719       O  0.31512491  0.87895089  0.95250389    -0.77600
O1720       O  0.40919792  0.89965035  0.50439047    -0.82800
C1721       C  0.37947077  0.84322144  0.96833846     0.98200
C1722       C  0.40670003  0.89074393  0.53028599     1.04100
O1723       O  0.36780943  0.83462181  0.99296416    -0.78500
C1724       C  0.33413311  0.88846046  0.93333528     1.02400
Fe1725     Fe  0.43353096  0.11706736  0.51480218     1.65800
Fe1726     Fe  0.48501271  0.10628303  0.53798417     1.73200
Fe1727     Fe  0.49876778  0.15862912  0.99172037     1.54400
O1728       O  0.47016422  0.15265845  0.95968400    -0.82200
O1729       O  0.51720446  0.14190318  0.55581263    -0.80500
O1730       O  0.43185350  0.11302660  0.97012199    -0.84700
O1731       O  0.44386314  0.15846934  0.51130906    -0.79500
O1732       O  0.50803157  0.13251890  0.96971229    -0.81300
O1733       O  0.46104918  0.10430741  0.57323160    -0.84100
C1734       C  0.46640173  0.18177899  0.51361022     0.96700
C1735       C  0.44795100  0.13105084  0.95180671     1.04100
O1736       O  0.47245210  0.12667402  0.51438278    -1.13000
O1737       O  0.45430942  0.06888454  0.52257338    -0.75500
O1738       O  0.41770091  0.07447893  0.51823169    -0.79000
O1739       O  0.49022135  0.18420026  0.51079358    -0.79700
C1740       C  0.42854828  0.05925733  0.51875129     0.95600
O1741       O  0.43459925  0.12174910  0.55924920    -0.77600
O1742       O  0.51138917  0.10878380  0.00704802    -0.82800
C1743       C  0.53686611  0.16175327  0.54198541     0.98200
C1744       C  0.51571837  0.11657603  0.98053984     1.04100
O1745       O  0.53329274  0.16880086  0.51683758    -0.78500
C1746       C  0.44524598  0.11395946  0.57878391     1.02400
Fe1747     Fe  0.43391847  0.11802075  0.76513160     1.65800
Fe1748     Fe  0.48590053  0.10769062  0.78727138     1.73200
Fe1749     Fe  0.49947434  0.15880920  0.73942717     1.54400
O1750       O  0.47073628  0.15039378  0.70695290    -0.82200
O1751       O  0.51765407  0.14345636  0.80529735    -0.80500
O1752       O  0.43089492  0.11321765  0.72062415    -0.84700
O1753       O  0.44359066  0.15929794  0.76242570    -0.79500
O1754       O  0.51108373  0.13380783  0.71825393    -0.81300
O1755       O  0.46161808  0.10458054  0.82279135    -0.84100
C1756       C  0.46600625  0.18281595  0.76352389     0.96700
C1757       C  0.44714772  0.12942675  0.70114870     1.04100
O1758       O  0.47307372  0.12810733  0.76403087    -1.13000
O1759       O  0.45549829  0.07036890  0.77131182    -0.75500
O1760       O  0.41849697  0.07535438  0.76812397    -0.79000
O1761       O  0.48972514  0.18550975  0.75922575    -0.79700
C1762       C  0.42955687  0.06029319  0.76838203     0.95600
O1763       O  0.43490763  0.12195102  0.80977918    -0.77600
O1764       O  0.51210355  0.10817178  0.75480866    -0.82800
C1765       C  0.53645504  0.16489965  0.79242815     0.98200
C1766       C  0.51837060  0.11749666  0.72899320     1.04100
O1767       O  0.53285290  0.17210606  0.76746037    -0.78500
C1768       C  0.44533632  0.11350936  0.82891497     1.02400
Fe1769     Fe  0.68852413  0.12229888  0.62181325     1.65800
Fe1770     Fe  0.62526680  0.10776782  0.59855753     1.73200
Fe1771     Fe  0.66073225  0.16003784  0.64535520     1.54400
O1772       O  0.68322690  0.15422004  0.67791477    -0.82200
O1773       O  0.62815582  0.14201239  0.57892755    -0.80500
O1774       O  0.68472883  0.11637640  0.66597369    -0.84700
O1775       O  0.71885947  0.16416233  0.62625067    -0.79500
O1776       O  0.62472013  0.13337210  0.66715859    -0.81300
O1777       O  0.64824821  0.10555518  0.56404493    -0.84100
C1778       C  0.71862573  0.18654837  0.62198382     0.96700
C1779       C  0.68521277  0.13323639  0.68472017     1.04100
O1780       O  0.65808411  0.12996707  0.62182017    -1.13000
O1781       O  0.61987767  0.07210600  0.61651114    -0.75500
O1782       O  0.66284770  0.07933358  0.61695111    -0.79000
O1783       O  0.69655559  0.18770447  0.62423413    -0.79700
C1784       C  0.63661811  0.06316695  0.61820126     0.95600
O1785       O  0.69293412  0.12789125  0.57763387    -0.77600
O1786       O  0.59828915  0.10765130  0.63020047    -0.82800
C1787       C  0.62796226  0.16209704  0.59135594     0.98200
C1788       C  0.60104061  0.11680099  0.65611023     1.04100
O1789       O  0.63777683  0.16991462  0.61682804    -0.78500
C1790       C  0.67417428  0.11790431  0.55821362     1.02400
Fe1791     Fe  0.68377302  0.12344962  0.87036205     1.65800
Fe1792     Fe  0.62028285  0.11111554  0.84873663     1.73200
Fe1793     Fe  0.65798584  0.16222572  0.89672642     1.54400
O1794       O  0.68138470  0.15674800  0.92788866    -0.82200
O1795       O  0.62268256  0.14646332  0.83203359    -0.80500
O1796       O  0.68286608  0.11943576  0.91487906    -0.84700
O1797       O  0.71454900  0.16555183  0.87157963    -0.79500
O1798       O  0.62273946  0.13509451  0.91909015    -0.81300
O1799       O  0.64191927  0.11036737  0.81258971    -0.84100
C1800       C  0.71475449  0.18849304  0.87031383     0.96700
C1801       C  0.68342199  0.13581306  0.93420756     1.04100
O1802       O  0.65399064  0.13217919  0.87162814    -1.13000
O1803       O  0.61442834  0.07388426  0.86318653    -0.75500
O1804       O  0.65695123  0.08048214  0.86913619    -0.79000
O1805       O  0.69317731  0.19003759  0.87499616    -0.79700
C1806       C  0.63060087  0.06485552  0.86895988     0.95600
O1807       O  0.68600700  0.12593266  0.82568653    -0.77600
O1808       O  0.59488823  0.10950459  0.88277275    -0.82800
C1809       C  0.62374007  0.16644248  0.84615009     0.98200
C1810       C  0.59884085  0.11774277  0.90913363     1.04100
O1811       O  0.63475095  0.17333715  0.87107171    -0.78500
C1812       C  0.66706902  0.11807920  0.80653909     1.02400
Fe1813     Fe  0.57148661  0.88706843  0.63748975     1.65800
Fe1814     Fe  0.52036310  0.89865432  0.66064345     1.73200
Fe1815     Fe  0.50551931  0.84777753  0.61188152     1.54400
O1816       O  0.53382303  0.85527918  0.57892801    -0.82200
O1817       O  0.48764233  0.86330589  0.67823693    -0.80500
O1818       O  0.57451853  0.89093389  0.59291259    -0.84700
O1819       O  0.56031112  0.84533163  0.63594515    -0.79500
O1820       O  0.49566269  0.87450941  0.59137421    -0.81300
O1821       O  0.54399560  0.90045568  0.69572620    -0.84100
C1822       C  0.53775754  0.82186619  0.63612035     0.96700
C1823       C  0.55809835  0.87523773  0.57331701     1.04100
O1824       O  0.53248164  0.87778639  0.63689093    -1.13000
O1825       O  0.55139575  0.93557859  0.64498202    -0.75500
O1826       O  0.58772705  0.92992225  0.63854743    -0.79000
O1827       O  0.51422244  0.81960500  0.63104186    -0.79700
C1828       C  0.57665224  0.94496727  0.63850518     0.95600
O1829       O  0.57176722  0.88455515  0.68229154    -0.77600
O1830       O  0.49505818  0.89980361  0.62852307    -0.82800
C1831       C  0.46811792  0.84309445  0.66456330     0.98200
C1832       C  0.48913826  0.89129314  0.60248309     1.04100
O1833       O  0.47180224  0.83561281  0.63971398    -0.78500
C1834       C  0.56124135  0.89274169  0.70155823     1.02400
Fe1835     Fe  0.57230495  0.88868143  0.88679028     1.65800
Fe1836     Fe  0.52070382  0.89817531  0.91213200     1.73200
Fe1837     Fe  0.50664585  0.84958642  0.86168276     1.54400
O1838       O  0.53561262  0.85677251  0.82958689    -0.82200
O1839       O  0.48888253  0.86168660  0.92909706    -0.80500
O1840       O  0.57483463  0.89470283  0.84262754    -0.84700
O1841       O  0.56125027  0.84684884  0.88259769    -0.79500
O1842       O  0.49797266  0.87707412  0.84148156    -0.81300
O1843       O  0.54518761  0.89948427  0.94658141    -0.84100
C1844       C  0.53846167  0.82352095  0.88403842     0.96700
C1845       C  0.55910055  0.87771773  0.82348320     1.04100
O1846       O  0.53334057  0.87890796  0.88708562    -1.13000
O1847       O  0.55092968  0.93598124  0.89726958    -0.75500
O1848       O  0.58798818  0.93159779  0.89070970    -0.79000
O1849       O  0.51488823  0.82168634  0.88117599    -0.79700
C1850       C  0.57662976  0.94642561  0.89197835     0.95600
O1851       O  0.57242217  0.88353127  0.93104148    -0.77600
O1852       O  0.49465142  0.89914900  0.88030248    -0.82800
C1853       C  0.46873809  0.84319919  0.91443632     0.98200
C1854       C  0.48993734  0.89226327  0.85360068     1.04100
O1855       O  0.47220696  0.83736944  0.88868546    -0.78500
C1856       C  0.56177791  0.89059320  0.95120439     1.02400
Fe1857     Fe  0.68637060  0.56885867  0.67741742     1.65800
Fe1858     Fe  0.62201873  0.52015067  0.69992777     1.73200
Fe1859     Fe  0.65866526  0.50217694  0.65551230     1.54400
O1860       O  0.67979707  0.52927093  0.62152825    -0.82200
O1861       O  0.62285944  0.48795582  0.72061802    -0.80500
O1862       O  0.68379817  0.56988061  0.63289664    -0.84700
O1863       O  0.71698503  0.55790591  0.67549405    -0.79500
O1864       O  0.62218362  0.49055143  0.63369266    -0.81300
O1865       O  0.64441910  0.54554656  0.73465164    -0.84100
C1866       C  0.71729822  0.53542695  0.67839965     0.96700
C1867       C  0.68255630  0.55250807  0.61432575     1.04100
O1868       O  0.65562664  0.53024722  0.67784000    -1.13000
O1869       O  0.61772051  0.55088416  0.68063436    -0.75500
O1870       O  0.66114892  0.58647051  0.67922248    -0.79000
O1871       O  0.69536845  0.51177232  0.67582385    -0.79700
C1872       C  0.63508518  0.57646775  0.67674172     0.95600
O1873       O  0.68936717  0.56892157  0.72192104    -0.77600
O1874       O  0.59553039  0.49312594  0.66827923    -0.82800
C1875       C  0.62516881  0.46833263  0.70985408     0.98200
C1876       C  0.59861522  0.48501941  0.64346822     1.04100
O1877       O  0.63690937  0.47050574  0.68551860    -0.78500
C1878       C  0.67018547  0.56020771  0.74089508     1.02400
Fe1879     Fe  0.68672540  0.56944178  0.92648705     1.65800
Fe1880     Fe  0.62235289  0.52006920  0.94869881     1.73200
Fe1881     Fe  0.65810867  0.50384344  0.90144861     1.54400
O1882       O  0.68063375  0.53245124  0.86935924    -0.82200
O1883       O  0.62367439  0.48715319  0.96695751    -0.80500
O1884       O  0.68432721  0.57258047  0.88204960    -0.84700
O1885       O  0.71684723  0.55759898  0.92269301    -0.79500
O1886       O  0.62220406  0.49454086  0.87972583    -0.81300
O1887       O  0.64516352  0.54378352  0.98401059    -0.84100
C1888       C  0.71640788  0.53456939  0.92448856     0.96700
C1889       C  0.68428273  0.55615406  0.86297066     1.04100
O1890       O  0.65559493  0.53112949  0.92562105    -1.13000
O1891       O  0.61782229  0.55198263  0.93301176    -0.75500
O1892       O  0.66153512  0.58716865  0.93063860    -0.79000
O1893       O  0.69397301  0.51142171  0.92192361    -0.79700
C1894       C  0.63539059  0.57774566  0.93060919     0.95600
O1895       O  0.69000098  0.56761392  0.97092479    -0.77600
O1896       O  0.59557165  0.49437804  0.91603781    -0.82800
C1897       C  0.62422450  0.46743478  0.95398043     0.98200
C1898       C  0.59857969  0.48803624  0.89018847     1.04100
O1899       O  0.63522763  0.47051704  0.92911633    -0.78500
C1900       C  0.67098491  0.55791921  0.99013354     1.02400
Fe1901     Fe  0.43332553  0.31480883  0.53375124     1.65800
Fe1902     Fe  0.48359305  0.37876550  0.51196767     1.73200
Fe1903     Fe  0.49912783  0.34232557  0.55869939     1.54400
O1904       O  0.47053406  0.31961074  0.59091475    -0.82200
O1905       O  0.51593136  0.37665590  0.49312367    -0.80500
O1906       O  0.43060977  0.31643623  0.57824221    -0.84700
O1907       O  0.44480736  0.28446951  0.53621270    -0.79500
O1908       O  0.50864253  0.37797942  0.58071869    -0.81300
O1909       O  0.46037342  0.35713508  0.97645592    -0.84100
C1910       C  0.46779039  0.28468818  0.53493033     0.96700
C1911       C  0.44706943  0.31669290  0.59739895     1.04100
O1912       O  0.47201888  0.34531220  0.53460411    -1.13000
O1913       O  0.45270050  0.38385270  0.52956796    -0.75500
O1914       O  0.41631986  0.34078340  0.53164954    -0.79000
O1915       O  0.49113216  0.30683319  0.53770772    -0.79700
C1916       C  0.42698827  0.36699800  0.53377169     0.95600
O1917       O  0.43386150  0.31267435  0.98922351    -0.77600
O1918       O  0.50987886  0.40489760  0.54431257    -0.82800
C1919       C  0.53571790  0.37622341  0.50626063     0.98200
C1920       C  0.51593583  0.40173933  0.57014394     1.04100
O1921       O  0.53255845  0.36524435  0.53112933    -0.78500
C1922       C  0.44385818  0.33179638  0.97014942     1.02400
Fe1923     Fe  0.43208823  0.31472387  0.78400021     1.65800
Fe1924     Fe  0.48254758  0.37843419  0.76182179     1.73200
Fe1925     Fe  0.49707598  0.34260796  0.81035014     1.54400
O1926       O  0.46751294  0.31899435  0.84150481    -0.82200
O1927       O  0.51544852  0.37636891  0.74456446    -0.80500
O1928       O  0.42856137  0.31768334  0.82835545    -0.84700
O1929       O  0.44383685  0.28472301  0.78850170    -0.79500
O1930       O  0.50520468  0.37781721  0.83229414    -0.81300
O1931       O  0.45914217  0.35569733  0.72601818    -0.84100
C1932       C  0.46697858  0.28544852  0.78570444     0.96700
C1933       C  0.44432165  0.31680652  0.84767964     1.04100
O1934       O  0.47052719  0.34538573  0.78520551    -1.13000
O1935       O  0.45078253  0.38343006  0.77654990    -0.75500
O1936       O  0.41490870  0.34010214  0.77879302    -0.79000
O1937       O  0.49018248  0.30764870  0.78904872    -0.79700
C1938       C  0.42489005  0.36625125  0.77818104     0.95600
O1939       O  0.43417632  0.31110425  0.73965661    -0.77600
O1940       O  0.50769182  0.40485449  0.79530454    -0.82800
C1941       C  0.53499392  0.37660525  0.75878563     0.98200
C1942       C  0.51270039  0.40158387  0.82169982     1.04100
O1943       O  0.53139118  0.36639513  0.78411749    -0.78500
C1944       C  0.44422391  0.32986974  0.72021837     1.02400
Fe1945     Fe  0.57133647  0.68844427  0.65887540     1.65800
Fe1946     Fe  0.52063679  0.62514359  0.63700078     1.73200
Fe1947     Fe  0.50596760  0.66138539  0.68437084     1.54400
O1948       O  0.53525348  0.68387727  0.71656598    -0.82200
O1949       O  0.48985817  0.62920971  0.61777390    -0.80500
O1950       O  0.57441438  0.68549460  0.70338401    -0.84700
O1951       O  0.56031313  0.71928613  0.66260133    -0.79500
O1952       O  0.49639202  0.62575475  0.70621163    -0.81300
O1953       O  0.54598379  0.64716124  0.60200457    -0.84100
C1954       C  0.53729960  0.71887969  0.65953765     0.96700
C1955       C  0.55825731  0.68550132  0.72283414     1.04100
O1956       O  0.53271486  0.65827324  0.66003834    -1.13000
O1957       O  0.55073933  0.61900614  0.65440380    -0.75500
O1958       O  0.58760519  0.66181313  0.65427778    -0.79000
O1959       O  0.51402899  0.69687088  0.66328882    -0.79700
C1960       C  0.57681867  0.63545792  0.65513502     0.95600
O1961       O  0.56942146  0.69198360  0.61438368    -0.77600
O1962       O  0.49294923  0.59873351  0.66900932    -0.82800
C1963       C  0.46971764  0.62871728  0.63092132     0.98200
C1964       C  0.48751689  0.60190279  0.69522471     1.04100
O1965       O  0.47225568  0.63832246  0.65653279    -0.78500
C1966       C  0.56019424  0.67282029  0.59538616     1.02400
Fe1967     Fe  0.57094641  0.69018042  0.91026602     1.65800
Fe1968     Fe  0.52234045  0.62563492  0.88881428     1.73200
Fe1969     Fe  0.50445895  0.66250200  0.93190390     1.54400
O1970       O  0.53209314  0.68733780  0.96409741    -0.82200
O1971       O  0.49052983  0.62662254  0.86777804    -0.80500
O1972       O  0.57169036  0.68855032  0.95497080    -0.84700
O1973       O  0.55850988  0.71999758  0.91075576    -0.79500
O1974       O  0.49569646  0.62853474  0.95626798    -0.81300
O1975       O  0.54743525  0.64737954  0.85335636    -0.84100
C1976       C  0.53543799  0.71911604  0.90626924     0.96700
C1977       C  0.55458629  0.68917490  0.97269784     1.04100
O1978       O  0.53261433  0.65934468  0.91013992    -1.13000
O1979       O  0.55297078  0.62152165  0.90815928    -0.75500
O1980       O  0.58882564  0.66481375  0.91012188    -0.79000
O1981       O  0.51234580  0.69654827  0.90809147    -0.79700
C1982       C  0.57842124  0.63866374  0.91290953     0.95600
O1983       O  0.57115804  0.69233357  0.86546931    -0.77600
O1984       O  0.49565328  0.60029819  0.92196520    -0.82800
C1985       C  0.46981165  0.62599506  0.87968583     0.98200
C1986       C  0.48954384  0.60457622  0.94749692     1.04100
O1987       O  0.47163354  0.63710989  0.90427396    -0.78500
C1988       C  0.56173385  0.67306428  0.84656018     1.02400
Fe1989     Fe  0.31851966  0.43460547  0.55354599     1.65800
Fe1990     Fe  0.38174115  0.48520121  0.57666220     1.73200
Fe1991     Fe  0.34554117  0.49999374  0.52891247     1.54400
O1992       O  0.32476639  0.47319396  0.99640256    -0.82200
O1993       O  0.37889924  0.51729623  0.59458397    -0.80500
O1994       O  0.32177556  0.43250818  0.50907861    -0.84700
O1995       O  0.28808612  0.44615000  0.55035734    -0.79500
O1996       O  0.38063043  0.50836760  0.50657625    -0.81300
O1997       O  0.35886371  0.46123409  0.61220559    -0.84100
C1998       C  0.28847991  0.46905694  0.55392923     0.96700
C1999       C  0.32230578  0.45005893  0.98942227     1.04100
O2000       O  0.34870287  0.47319831  0.55327582    -1.13000
O2001       O  0.38760363  0.45413474  0.56129864    -0.75500
O2002       O  0.34470095  0.41786829  0.55725848    -0.79000
O2003       O  0.31054156  0.49242768  0.55074515    -0.79700
C2004       C  0.37102615  0.42829727  0.55812049     0.95600
O2005       O  0.31450344  0.43517888  0.59798662    -0.77600
O2006       O  0.40807550  0.51102618  0.54335159    -0.82800
C2007       C  0.37923573  0.53715381  0.58105927     0.98200
C2008       C  0.40452369  0.51600297  0.51701491     1.04100
O2009       O  0.36947352  0.53415802  0.55554163    -0.78500
C2010       C  0.33298788  0.44556560  0.61769598     1.02400
Fe2011     Fe  0.31504165  0.43154256  0.80376814     1.65800
Fe2012     Fe  0.38047235  0.48021390  0.82124184     1.73200
Fe2013     Fe  0.34239978  0.49673867  0.77828288     1.54400
O2014       O  0.31728868  0.46747599  0.74735173    -0.82200
O2015       O  0.37987847  0.51230016  0.84211408    -0.80500
O2016       O  0.31564581  0.42813498  0.75928674    -0.84700
O2017       O  0.28523368  0.44365143  0.80226644    -0.79500
O2018       O  0.37639135  0.50528731  0.75330640    -0.81300
O2019       O  0.36011747  0.45540096  0.85745287    -0.84100
C2020       C  0.28622935  0.46674757  0.80604593     0.96700
C2021       C  0.31575249  0.44471313  0.74037852     1.04100
O2022       O  0.34602339  0.46960556  0.80129181    -1.13000
O2023       O  0.38336068  0.44918118  0.80099149    -0.75500
O2024       O  0.34008306  0.41366095  0.80556061    -0.79000
O2025       O  0.30844074  0.48985907  0.80220913    -0.79700
C2026       C  0.36568747  0.42341702  0.79970340     0.95600
O2027       O  0.31454854  0.43446872  0.84833944    -0.77600
O2028       O  0.40508065  0.50704345  0.78801085    -0.82800
C2029       C  0.37929845  0.53237871  0.83003879     0.98200
C2030       C  0.40070042  0.51309987  0.76255839     1.04100
O2031       O  0.36783385  0.52998630  0.80544976    -0.78500
C2032       C  0.33483921  0.44302107  0.86595969     1.02400
Fe2033     Fe  0.11968788  0.43394714  0.57648948     1.65800
Fe2034     Fe  0.10933958  0.48552602  0.55402862     1.73200
Fe2035     Fe  0.16047766  0.49911981  0.60128893     1.54400
O2036       O  0.15385129  0.46985464  0.63306763    -0.82200
O2037       O  0.14506210  0.51643090  0.53531239    -0.80500
O2038       O  0.11460931  0.43147265  0.62102380    -0.84700
O2039       O  0.16148552  0.44432306  0.57955456    -0.79500
O2040       O  0.13468963  0.50846142  0.62367836    -0.81300
O2041       O  0.10562844  0.46055064  0.51877229    -0.84100
C2042       C  0.18488031  0.46685521  0.57686015     0.96700
C2043       C  0.13213271  0.44716129  0.63992760     1.04100
O2044       O  0.12971582  0.47279046  0.57708880    -1.13000
O2045       O  0.07232337  0.45579975  0.57100501    -0.75500
O2046       O  0.07663926  0.41844708  0.57356629    -0.79000
O2047       O  0.18719684  0.49057272  0.57952362    -0.79700
C2048       C  0.06207013  0.43006603  0.57534272     0.95600
O2049       O  0.12404957  0.43481714  0.53192249    -0.77600
O2050       O  0.11090460  0.51234233  0.58683174    -0.82800
C2051       C  0.16438786  0.53647639  0.54920792     0.98200
C2052       C  0.11922274  0.51686568  0.61322237     1.04100
O2053       O  0.17149724  0.53331621  0.57449813    -0.78500
C2054       C  0.11523437  0.44478946  0.51269669     1.02400
Fe2055     Fe  0.11852681  0.43376686  0.82700714     1.65800
Fe2056     Fe  0.10759880  0.48482246  0.80381774     1.73200
Fe2057     Fe  0.15894630  0.49973604  0.85195452     1.54400
O2058       O  0.15011352  0.47137926  0.88537043    -0.82200
O2059       O  0.14291695  0.51593185  0.78507836    -0.80500
O2060       O  0.11340095  0.43112473  0.87161643    -0.84700
O2061       O  0.16003408  0.44390971  0.83037792    -0.79500
O2062       O  0.13347977  0.51097679  0.87246771    -0.81300
O2063       O  0.10454655  0.46007232  0.76892399    -0.84100
C2064       C  0.18369765  0.46623375  0.82968454     0.96700
C2065       C  0.12945704  0.44748421  0.89113301     1.04100
O2066       O  0.12842995  0.47278218  0.82747338    -1.13000
O2067       O  0.07077800  0.45495128  0.82077507    -0.75500
O2068       O  0.07552853  0.41793275  0.82419851    -0.79000
O2069       O  0.18637536  0.48999603  0.83342300    -0.79700
C2070       C  0.06084051  0.42939233  0.82576215     0.95600
O2071       O  0.12285508  0.43436474  0.78211956    -0.77600
O2072       O  0.10806196  0.51162412  0.83545253    -0.82800
C2073       C  0.16423521  0.53544559  0.79724864     0.98200
C2074       C  0.11718557  0.51802252  0.86131582     1.04100
O2075       O  0.17183178  0.53287121  0.82262868    -0.78500
C2076       C  0.11406044  0.44431769  0.76277175     1.02400
Fe2077     Fe  0.12090879  0.68442996  0.72094078     1.65800
Fe2078     Fe  0.10905606  0.62160731  0.74385185     1.73200
Fe2079     Fe  0.15967532  0.65874324  0.69557111     1.54400
O2080       O  0.15414826  0.68233164  0.66418089    -0.82200
O2081       O  0.14483158  0.62537516  0.76123143    -0.80500
O2082       O  0.11567887  0.68212862  0.67634306    -0.84700
O2083       O  0.16321877  0.71556674  0.71823655    -0.79500
O2084       O  0.13275445  0.62385614  0.67316705    -0.81300
O2085       O  0.10791870  0.64379286  0.77954525    -0.84100
C2086       C  0.18602061  0.71549611  0.72100009     0.96700
C2087       C  0.13292391  0.68382879  0.65732943     1.04100
O2088       O  0.12959288  0.65478846  0.72029226    -1.13000
O2089       O  0.07126438  0.61461294  0.72920152    -0.75500
O2090       O  0.07783715  0.65716606  0.72367303    -0.79000
O2091       O  0.18700300  0.69351327  0.71782164    -0.79700
C2092       C  0.06203508  0.63083966  0.72467062     0.95600
O2093       O  0.12513602  0.68791111  0.76558479    -0.77600
O2094       O  0.10866946  0.59606874  0.71021447    -0.82800
C2095       C  0.16402728  0.62499470  0.74700802     0.98200
C2096       C  0.11688322  0.59989411  0.68374266     1.04100
O2097       O  0.17039093  0.63493051  0.72149562    -0.78500
C2098       C  0.11740244  0.66938849  0.78516727     1.02400
Fe2099     Fe  0.11916669  0.68527155  0.97189607     1.65800
Fe2100     Fe  0.10621345  0.62189009  0.99324703     1.73200
Fe2101     Fe  0.15831770  0.65963829  0.94675114     1.54400
O2102       O  0.15208790  0.68236438  0.91502930    -0.82200
O2103       O  0.13883165  0.62417436  0.51321821    -0.80500
O2104       O  0.11381681  0.68279945  0.92733888    -0.84700
O2105       O  0.16123262  0.71671312  0.96891253    -0.79500
O2106       O  0.13214305  0.62404227  0.92431602    -0.81300
O2107       O  0.10197396  0.64418906  0.52784241    -0.84100
C2108       C  0.18423512  0.71705527  0.97107450     0.96700
C2109       C  0.13060450  0.68349431  0.90828313     1.04100
O2110       O  0.12790596  0.65558969  0.97088191    -1.13000
O2111       O  0.07002275  0.61599377  0.97583455    -0.75500
O2112       O  0.07610197  0.65840943  0.97538297    -0.79000
O2113       O  0.18571904  0.69526311  0.96830285    -0.79700
C2114       C  0.06045698  0.63217142  0.97353460     0.95600
O2115       O  0.12455170  0.68903106  0.51531447    -0.77600
O2116       O  0.10684708  0.59630883  0.96064557    -0.82800
C2117       C  0.16103939  0.62549403  0.99887577     0.98200
C2118       C  0.11609469  0.59996025  0.93473436     1.04100
O2119       O  0.16879483  0.63652525  0.97391477    -0.78500
C2120       C  0.11376242  0.66988678  0.53436052     1.02400
Fe2121     Fe  0.88609476  0.57006988  0.69872585     1.65800
Fe2122     Fe  0.89839051  0.51984720  0.67541337     1.73200
Fe2123     Fe  0.84627167  0.50417812  0.72246507     1.54400
O2124       O  0.85247902  0.53214955  0.75514331    -0.82200
O2125       O  0.86311688  0.48860097  0.65574968    -0.80500
O2126       O  0.89018024  0.57210689  0.74333683    -0.84700
O2127       O  0.84377851  0.55888126  0.70069602    -0.79500
O2128       O  0.87231550  0.49449431  0.74429402    -0.81300
O2129       O  0.90236290  0.54538517  0.64060373    -0.84100
C2130       C  0.82066792  0.53589533  0.69825620     0.96700
C2131       C  0.87303344  0.55562276  0.76204152     1.04100
O2132       O  0.87694004  0.53141817  0.69865892    -1.13000
O2133       O  0.93500917  0.54959397  0.69365769    -0.75500
O2134       O  0.92935694  0.58623532  0.69682398    -0.79000
O2135       O  0.81898253  0.51259985  0.70178862    -0.79700
C2136       C  0.94447314  0.57518077  0.69827824     0.95600
O2137       O  0.88288842  0.57002586  0.65417566    -0.77600
O2138       O  0.89713915  0.49277984  0.70723969    -0.82800
C2139       C  0.84239096  0.46880444  0.66860391     0.98200
C2140       C  0.88852398  0.48718269  0.73337051     1.04100
O2141       O  0.83526187  0.47133100  0.69409867    -0.78500
C2142       C  0.89202767  0.56054431  0.63478161     1.02400
Fe2143     Fe  0.88509361  0.56988216  0.94852659     1.65800
Fe2144     Fe  0.89488465  0.51799189  0.92496213     1.73200
Fe2145     Fe  0.84547514  0.50455963  0.97479251     1.54400
O2146       O  0.85372141  0.53682339  0.50555850    -0.82200
O2147       O  0.85856282  0.48639151  0.90795655    -0.80500
O2148       O  0.89244265  0.57516885  0.49250977    -0.84700
O2149       O  0.84311911  0.55890968  0.95023786    -0.79500
O2150       O  0.87305101  0.49819023  0.49553142    -0.81300
O2151       O  0.89741660  0.54199122  0.88972097    -0.84100
C2152       C  0.81963765  0.53621251  0.94978690     0.96700
C2153       C  0.87586042  0.55933065  0.51193822     1.04100
O2154       O  0.87513888  0.53091812  0.94917412    -1.13000
O2155       O  0.93224487  0.54804278  0.94035672    -0.75500
O2156       O  0.92795962  0.58505205  0.94733623    -0.79000
O2157       O  0.81727958  0.51270838  0.95494855    -0.79700
C2158       C  0.94235551  0.57320710  0.94737700     0.95600
O2159       O  0.88198854  0.56997227  0.90381568    -0.77600
O2160       O  0.89538177  0.49234669  0.95726105    -0.82800
C2161       C  0.83958487  0.46653892  0.92249103     0.98200
C2162       C  0.88843331  0.48803888  0.98390937     1.04100
O2163       O  0.83326128  0.47013612  0.94797438    -0.78500
C2164       C  0.88960186  0.55922555  0.88426220     1.02400
Fe2165     Fe  0.88305574  0.31960048  0.59165960     1.65800
Fe2166     Fe  0.89764028  0.38333950  0.61273041     1.73200
Fe2167     Fe  0.84538891  0.34703485  0.56554162     1.54400
O2168       O  0.85216555  0.32521013  0.53338602    -0.82200
O2169       O  0.86307838  0.38096681  0.63152313    -0.80500
O2170       O  0.88839155  0.32147922  0.54742701    -0.84700
O2171       O  0.84111260  0.28919063  0.58839093    -0.79500
O2172       O  0.87210297  0.38340347  0.54409492    -0.81300
O2173       O  0.89985952  0.36149640  0.64801567    -0.84100
C2174       C  0.81827818  0.28913782  0.58984433     0.96700
C2175       C  0.87264172  0.32197050  0.52786999     1.04100
O2176       O  0.87528335  0.34998694  0.59009097    -1.13000
O2177       O  0.93363924  0.38834540  0.59503501    -0.75500
O2178       O  0.92620912  0.34542342  0.59550743    -0.79000
O2179       O  0.81698984  0.31088601  0.58575073    -0.79700
C2180       C  0.94247609  0.37150025  0.59308677     0.95600
O2181       O  0.87833301  0.31668734  0.63602464    -0.77600
O2182       O  0.89799292  0.40975511  0.58090682    -0.82800
C2183       C  0.84238345  0.37976909  0.61866597     0.98200
C2184       C  0.88871414  0.40703403  0.55517566     1.04100
O2185       O  0.83459029  0.36916302  0.59355311    -0.78500
C2186       C  0.88830407  0.33592931  0.65486371     1.02400
Fe2187     Fe  0.88285742  0.31860843  0.84131112     1.65800
Fe2188     Fe  0.89615465  0.38151361  0.86522455     1.73200
Fe2189     Fe  0.84490322  0.34602550  0.81682762     1.54400
O2190       O  0.85136740  0.32441102  0.78414701    -0.82200
O2191       O  0.86106226  0.37873010  0.88344441    -0.80500
O2192       O  0.88868882  0.32237509  0.79704876    -0.84700
O2193       O  0.84090724  0.28806392  0.83750366    -0.79500
O2194       O  0.87208992  0.38248316  0.79619560    -0.81300
O2195       O  0.89724508  0.35837138  0.89967644    -0.84100
C2196       C  0.81817673  0.28806612  0.84013037     0.96700
C2197       C  0.87259637  0.32274095  0.77786812     1.04100
O2198       O  0.87464708  0.34873638  0.84137704    -1.13000
O2199       O  0.93295707  0.38735928  0.84912648    -0.75500
O2200       O  0.92578423  0.34459817  0.84533888    -0.79000
O2201       O  0.81675969  0.30985285  0.83680526    -0.79700
C2202       C  0.94194553  0.37078721  0.84558605     0.95600
O2203       O  0.87819667  0.31405251  0.88577156    -0.77600
O2204       O  0.89752339  0.40870011  0.83342950    -0.82800
C2205       C  0.84107960  0.37836664  0.86990194     0.98200
C2206       C  0.88893832  0.40602384  0.80733353     1.04100
O2207       O  0.83375250  0.36784262  0.84475695    -0.78500
C2208       C  0.88721398  0.33272088  0.90528788     1.02400
C2209       C  0.85799127  0.30270048  0.97934215    -0.20800
C2210       C  0.87973247  0.32191241  0.99715013    -0.07400
C2211       C  0.90511694  0.34209618  0.98440616     0.13500
C2212       C  0.90793219  0.34294547  0.95413426    -0.20900
C2213       C  0.88553992  0.32508572  0.93620652    -0.07400
C2214       C  0.86049903  0.30411503  0.94890416     0.13500
C2215       C  0.83569781  0.28465062  0.93060183    -0.24200
H2216       H  0.83844605  0.28754146  0.98926946     0.14800
H2217       H  0.92699969  0.35908055  0.94427475     0.14800
C2218       C  0.92799800  0.36228979  0.50430349    -0.24200
H2219       H  0.81756880  0.27023822  0.94420785     0.05000
H2220       H  0.84108240  0.27190819  0.91655922     0.08200
H2221       H  0.82927773  0.29673347  0.91678035     0.08200
H2222       H  0.93519217  0.35140576  0.51885880     0.08200
H2223       H  0.92070015  0.37394859  0.51760030     0.08200
H2224       H  0.94640729  0.37897954  0.98870250     0.05000
C2225       C  0.90652043  0.34861175  0.70495492    -0.20800
C2226       C  0.88608098  0.32896561  0.68619748    -0.07400
C2227       C  0.86261311  0.30517665  0.69818583     0.13500
C2228       C  0.85949159  0.30269612  0.72852882    -0.20900
C2229       C  0.87934852  0.32305577  0.74699776    -0.07400
C2230       C  0.90339631  0.34600495  0.73517865     0.13500
C2231       C  0.92489440  0.36876326  0.75429736    -0.24200
H2232       H  0.92454519  0.36674264  0.69590375     0.14800
H2233       H  0.84096517  0.28533544  0.73792354     0.14800
C2234       C  0.84000223  0.28311296  0.67940444    -0.24200
H2235       H  0.94189175  0.38567169  0.74136751     0.05000
H2236       H  0.93436200  0.36012939  0.76897604     0.08200
H2237       H  0.91502484  0.37802381  0.76753931     0.08200
H2238       H  0.84875577  0.27297000  0.66581638     0.08200
H2239       H  0.83083736  0.29251666  0.66526396     0.08200
H2240       H  0.82288892  0.26661752  0.69260813     0.05000
C2241       C  0.89789276  0.43062747  0.50753984    -0.20800
C2242       C  0.89612541  0.43217724  0.53780745    -0.07400
C2243       C  0.89808615  0.45633301  0.55027996     0.13500
C2244       C  0.89750666  0.47609615  0.53196364    -0.20900
C2245       C  0.89635873  0.47304755  0.50160716    -0.07400
C2246       C  0.90098375  0.45051852  0.99030242     0.13500
C2247       C  0.90324842  0.44692755  0.95806567    -0.24200
H2248       H  0.90207591  0.41347675  0.00044132     0.14800
H2249       H  0.89689363  0.49355892  0.54146122     0.14800
C2250       C  0.89953101  0.46099837  0.58270048    -0.24200
H2251       H  0.90599528  0.42897656  0.95329919     0.05000
H2252       H  0.92162727  0.46581222  0.94912904     0.08200
H2253       H  0.88415513  0.44320394  0.94663792     0.08200
H2254       H  0.91859342  0.46210513  0.59153382     0.08200
H2255       H  0.88093658  0.44385852  0.59341788     0.08200
H2256       H  0.90043010  0.48077135  0.58835224     0.05000
C2257       C  0.82542980  0.43558839  0.87974959    -0.20800
C2258       C  0.82726618  0.43819182  0.91011751    -0.07400
C2259       C  0.82454476  0.41566553  0.92695540     0.13500
C2260       C  0.82580968  0.39399589  0.91291641    -0.20900
C2261       C  0.82849223  0.39380684  0.88258850    -0.07400
C2262       C  0.82552215  0.41337564  0.86570135     0.13500
C2263       C  0.82460488  0.41241156  0.83289398    -0.24200
H2264       H  0.82634202  0.45227833  0.86686316     0.14800
H2265       H  0.82689661  0.37831433  0.92578512     0.14800
C2266       C  0.82241116  0.41517387  0.95967271    -0.24200
H2267       H  0.82278385  0.42974010  0.82351726     0.05000
H2268       H  0.80626952  0.39259634  0.82562489     0.08200
H2269       H  0.84375126  0.41397468  0.82391318     0.08200
H2270       H  0.80385060  0.41632350  0.96615664     0.08200
H2271       H  0.84130957  0.43287646  0.96933876     0.08200
H2272       H  0.82013214  0.39577555  0.96898405     0.05000
C2273       C  0.90500547  0.57324353  0.80409148    -0.20800
C2274       C  0.87792376  0.56269766  0.79322847    -0.07400
C2275       C  0.85574916  0.55570080  0.81286020     0.13500
C2276       C  0.86085582  0.55721430  0.84283951    -0.20900
C2277       C  0.88734866  0.56503760  0.85353886    -0.07400
C2278       C  0.90996920  0.57430723  0.83410588     0.13500
C2279       C  0.93920440  0.58511281  0.84499763    -0.24200
H2280       H  0.92208406  0.57897472  0.78902839     0.14800
H2281       H  0.84368313  0.55045864  0.85797489     0.14800
C2282       C  0.82665041  0.54641312  0.80245338    -0.24200
H2283       H  0.95449177  0.59241493  0.82686231     0.05000
H2284       H  0.94059145  0.56852911  0.85676016     0.08200
H2285       H  0.94518054  0.60290507  0.85991390     0.08200
H2286       H  0.81747321  0.52598028  0.79141518     0.08200
H2287       H  0.82715714  0.56208740  0.78722393     0.08200
H2288       H  0.81263513  0.54402254  0.82079742     0.05000
C2289       C  0.91205877  0.57556877  0.58529697    -0.20800
C2290       C  0.88901249  0.56570450  0.60392168    -0.07400
C2291       C  0.86250676  0.55743757  0.59220711     0.13500
C2292       C  0.85942157  0.55791426  0.56204407    -0.20900
C2293       C  0.88207098  0.56620673  0.54315527    -0.07400
C2294       C  0.90900919  0.57619163  0.55497965     0.13500
C2295       C  0.93428537  0.58594278  0.53587020    -0.24200
H2296       H  0.93233876  0.58185844  0.59448132     0.14800
H2297       H  0.83883507  0.55033602  0.55302061     0.14800
C2298       C  0.83697426  0.54590392  0.61121317    -0.24200
H2299       H  0.95342545  0.59236523  0.54884091     0.05000
H2300       H  0.93772398  0.60418061  0.52289796     0.08200
H2301       H  0.93131313  0.56896019  0.52104162     0.08200
H2302       H  0.83897728  0.56202067  0.62674184     0.08200
H2303       H  0.83457917  0.52768222  0.62342480     0.08200
H2304       H  0.81771759  0.53902248  0.59830159     0.05000
C2305       C  0.89757789  0.42796043  0.75898657    -0.20800
C2306       C  0.89717977  0.43096618  0.78924711    -0.07400
C2307       C  0.90018697  0.45589978  0.80073792     0.13500
C2308       C  0.89898668  0.47489188  0.78166288    -0.20900
C2309       C  0.89620355  0.47021833  0.75150000    -0.07400
C2310       C  0.89747549  0.44742028  0.73991753     0.13500
C2311       C  0.89701911  0.44232304  0.70766259    -0.24200
H2312       H  0.89647224  0.40944141  0.75016445     0.14800
H2313       H  0.89922458  0.49301566  0.79040911     0.14800
C2314       C  0.90369468  0.46239743  0.83286210    -0.24200
H2315       H  0.91564963  0.45986251  0.69728007     0.05000
H2316       H  0.89729462  0.42299574  0.70277582     0.08200
H2317       H  0.87791268  0.44022744  0.69786494     0.08200
H2318       H  0.92293001  0.46325337  0.84074694     0.08200
H2319       H  0.88559387  0.44642821  0.84531587     0.08200
H2320       H  0.90568205  0.48282721  0.83758651     0.05000
C2321       C  0.82560374  0.41901246  0.67340333    -0.20800
C2322       C  0.82906653  0.44085619  0.65535375    -0.07400
C2323       C  0.82715140  0.43697066  0.62493014     0.13500
C2324       C  0.82693853  0.41366275  0.61333574    -0.20900
C2325       C  0.82981552  0.39504170  0.63153277    -0.07400
C2326       C  0.82695120  0.39648842  0.66188577     0.13500
C2327       C  0.82686787  0.37532310  0.68231243    -0.24200
H2328       H  0.82585839  0.42139781  0.69679289     0.14800
H2329       H  0.82794585  0.41200986  0.58993595     0.14800
C2330       C  0.82677558  0.45769755  0.60425264    -0.24200
H2331       H  0.82256849  0.37871162  0.70506031     0.05000
H2332       H  0.84739041  0.37665843  0.68224981     0.08200
H2333       H  0.81044468  0.35412155  0.67564746     0.08200
H2334       H  0.84567639  0.46692229  0.59034327     0.08200
H2335       H  0.82585270  0.47465495  0.61577279     0.08200
H2336       H  0.80806158  0.44700750  0.59014119     0.05000
C2337       C  0.01343129  0.59058823  0.97544688    -0.20800
C2338       C  0.02984936  0.61903170  0.96891464    -0.07400
C2339       C  0.01664120  0.63299267  0.95741588     0.13500
C2340       C  0.98793459  0.61766216  0.95111379    -0.20900
C2341       C  0.97209549  0.58887511  0.95604222    -0.07400
C2342       C  0.98500571  0.57534786  0.96928620     0.13500
C2343       C  0.96922199  0.54491248  0.97763888    -0.24200
H2344       H  0.02299816  0.57983045  0.98525764     0.14800
H2345       H  0.97793136  0.62812649  0.94162738     0.14800
C2346       C  0.03237502  0.66375922  0.95134504    -0.24200
H2347       H  0.98235177  0.53889150  0.99020935     0.05000
H2348       H  0.96220577  0.53164370  0.95790865     0.08200
H2349       H  0.95106868  0.54039624  0.99146918     0.08200
H2350       H  0.04948533  0.66902327  0.93575838     0.08200
H2351       H  0.04107289  0.67538910  0.97191468     0.08200
H2352       H  0.01873225  0.67083066  0.94179000     0.05000
C2353       C  0.02254817  0.62636041  0.69508818    -0.20800
C2354       C  0.03167657  0.61832438  0.71972309    -0.07400
C2355       C  0.01169732  0.59737909  0.73821107     0.13500
C2356       C  0.98328866  0.58465091  0.73122010    -0.20900
C2357       C  0.97425230  0.59214329  0.70619512    -0.07400
C2358       C  0.99406683  0.61324418  0.68790614     0.13500
C2359       C  0.98530438  0.62087509  0.66010073    -0.24200
H2360       H  0.03785935  0.64213954  0.68074152     0.14800
H2361       H  0.96798846  0.56828183  0.74505653     0.14800
C2362       C  0.02009659  0.58852069  0.76551404    -0.24200
H2363       H  0.00347546  0.63718129  0.64786770     0.05000
H2364       H  0.97117701  0.62887522  0.66507402     0.08200
H2365       H  0.97427344  0.60227042  0.64592175     0.08200
H2366       H  0.03270078  0.60687965  0.77961200     0.08200
H2367       H  0.03238567  0.57859210  0.75994426     0.08200
H2368       H  0.00168073  0.57319071  0.77821133     0.05000
C2369       C  0.09676267  0.66211604  0.83418272    -0.20800
C2370       C  0.11980636  0.67753899  0.81604087    -0.07400
C2371       C  0.14544898  0.69783300  0.82832540     0.13500
C2372       C  0.14768874  0.70107108  0.85866796    -0.20900
C2373       C  0.12504750  0.68445554  0.87698178    -0.07400
C2374       C  0.09900481  0.66527283  0.86449750     0.13500
C2375       C  0.07400832  0.64666958  0.88294917    -0.24200
H2376       H  0.07717002  0.64660129  0.82458526     0.14800
H2377       H  0.16767540  0.71559366  0.86829016     0.14800
C2378       C  0.17100637  0.71459580  0.80981503    -0.24200
H2379       H  0.05573055  0.63221664  0.86953722     0.05000
H2380       H  0.06807533  0.65957293  0.89585159     0.08200
H2381       H  0.07887032  0.63399204  0.89774221     0.08200
H2382       H  0.16735155  0.72754316  0.79418291     0.08200
H2383       H  0.17594810  0.70045841  0.79767203     0.08200
H2384       H  0.18947813  0.72874503  0.82316020     0.05000
C2385       C  0.10020241  0.66803079  0.61566574    -0.20800
C2386       C  0.12736993  0.68553265  0.62605238    -0.07400
C2387       C  0.14892739  0.70136447  0.60588371     0.13500
C2388       C  0.14324269  0.69730937  0.57592054    -0.20900
C2389       C  0.11671241  0.67755854  0.56559520    -0.07400
C2390       C  0.09463053  0.66365013  0.58571077     0.13500
C2391       C  0.06519442  0.64422421  0.57574961    -0.24200
H2392       H  0.08351315  0.65630532  0.63108448     0.14800
H2393       H  0.16005644  0.70842707  0.56048437     0.14800
C2394       C  0.17792511  0.72254851  0.61573556    -0.24200
H2395       H  0.05036072  0.63650228  0.59429464     0.05000
H2396       H  0.06364614  0.62587226  0.56466617     0.08200
H2397       H  0.05869032  0.65534829  0.56062014     0.08200
H2398       H  0.18788825  0.71223022  0.62686041     0.08200
H2399       H  0.17699482  0.73760650  0.63076762     0.08200
H2400       H  0.19146474  0.73441074  0.59710351     0.05000
C2401       C  0.98954242  0.40960171  0.85478112    -0.20800
C2402       C  0.97258143  0.38321717  0.84247289    -0.07400
C2403       C  0.98537668  0.37052965  0.82726306     0.13500
C2404       C  0.01443683  0.38566462  0.82279584    -0.20900
C2405       C  0.03093701  0.41284022  0.83351854    -0.07400
C2406       C  0.01836780  0.42441694  0.85083888     0.13500
C2407       C  0.03510792  0.45216867  0.86595028    -0.24200
H2408       H  0.98011997  0.41897586  0.86754739     0.14800
H2409       H  0.02419725  0.37656299  0.81016726     0.14800
C2410       C  0.96878974  0.34147722  0.81521075    -0.24200
H2411       H  0.02206611  0.45632568  0.88099908     0.05000
H2412       H  0.04407524  0.46933752  0.84986043     0.08200
H2413       H  0.05201816  0.45246752  0.87900084     0.08200
H2414       H  0.95281940  0.33998364  0.79978567     0.08200
H2415       H  0.95851576  0.32644269  0.83324879     0.08200
H2416       H  0.98221219  0.33534962  0.80339605     0.05000
C2417       C  0.18365754  0.58616204  0.80018761    -0.20800
C2418       C  0.17754458  0.56304838  0.78280449    -0.07400
C2419       C  0.17636036  0.56544970  0.75222680     0.13500
C2420       C  0.17606053  0.58853563  0.74059060    -0.20900
C2421       C  0.17611432  0.60872800  0.75882338    -0.07400
C2422       C  0.18197903  0.60861566  0.78872711     0.13500
C2423       C  0.18514189  0.63134763  0.80883709    -0.24200
H2424       H  0.18581920  0.58498033  0.82349471     0.14800
H2425       H  0.17256235  0.58908252  0.71745659     0.14800
C2426       C  0.17425083  0.54328407  0.73182689    -0.24200
H2427       H  0.19107608  0.62866358  0.83113863     0.05000
H2428       H  0.16528196  0.63127450  0.81057370     0.08200
H2429       H  0.20165699  0.65181821  0.80047749     0.08200
H2430       H  0.15399456  0.52371767  0.73416998     0.08200
H2431       H  0.19143160  0.53924248  0.73633309     0.08200
H2432       H  0.17595939  0.54983002  0.70874124     0.05000
C2433       C  0.10550569  0.53057280  0.90872509    -0.20800
C2434       C  0.11018294  0.53580656  0.87881534    -0.07400
C2435       C  0.11211175  0.56011411  0.86708019     0.13500
C2436       C  0.11191094  0.57969727  0.88588646    -0.20900
C2437       C  0.10956142  0.57564732  0.91614034    -0.07400
C2438       C  0.10483106  0.54997911  0.92759091     0.13500
C2439       C  0.10042251  0.54320907  0.95960325    -0.24200
H2440       H  0.10351152  0.51162028  0.91752986     0.14800
H2441       H  0.11482890  0.59895918  0.87691415     0.14800
C2442       C  0.11619601  0.56650467  0.83501840    -0.24200
H2443       H  0.09746887  0.52238314  0.96438462     0.05000
H2444       H  0.08147351  0.54314283  0.96711385     0.08200
H2445       H  0.11875035  0.55868657  0.97217921     0.08200
H2446       H  0.09778345  0.55062299  0.82279645     0.08200
H2447       H  0.13498801  0.56647702  0.82747297     0.08200
H2448       H  0.11892152  0.58717850  0.82992054     0.05000
C2449       C  0.01556125  0.38642934  0.57122091    -0.20800
C2450       C  0.03190344  0.41345619  0.58237303    -0.07400
C2451       C  0.01887118  0.42488479  0.59916792     0.13500
C2452       C  0.98995580  0.40997683  0.60244315    -0.20900
C2453       C  0.97313255  0.38373354  0.58971929    -0.07400
C2454       C  0.98632611  0.37136000  0.57444506     0.13500
C2455       C  0.97096704  0.34312892  0.56020923    -0.24200
H2456       H  0.02554576  0.37741445  0.55875637     0.14800
H2457       H  0.98031404  0.41920601  0.61510000     0.14800
C2458       C  0.03518200  0.45257466  0.61448563    -0.24200
H2459       H  0.97717972  0.32919976  0.57071400     0.05000
H2460       H  0.97668564  0.34517773  0.53682547     0.08200
H2461       H  0.94810917  0.33293947  0.56115141     0.08200
H2462       H  0.04441965  0.46980838  0.59847613     0.08200
H2463       H  0.05184399  0.45290234  0.62801691     0.08200
H2464       H  0.02177155  0.45660374  0.62911252     0.05000
C2465       C  0.17412443  0.58416478  0.55642984    -0.20800
C2466       C  0.17510071  0.56479541  0.53770667    -0.07400
C2467       C  0.17939113  0.57070320  0.50768100     0.13500
C2468       C  0.17444379  0.59020761  0.99193397    -0.20900
C2469       C  0.17208037  0.60987206  0.51487846    -0.07400
C2470       C  0.17233522  0.60661564  0.54535774     0.13500
C2471       C  0.17009294  0.62620417  0.56625333    -0.24200
H2472       H  0.17167876  0.58009818  0.57961979     0.14800
H2473       H  0.17299437  0.59240245  0.96868829     0.14800
C2474       C  0.17236539  0.54511788  0.98126699    -0.24200
H2475       H  0.17265393  0.62157816  0.58916348     0.05000
H2476       H  0.14944265  0.62445240  0.56462072     0.08200
H2477       H  0.18668459  0.64789813  0.56146131     0.08200
H2478       H  0.20205704  0.55083214  0.49452671     0.08200
H2479       H  0.17524039  0.55284730  0.95853377     0.08200
H2480       H  0.15185130  0.52563254  0.98226656     0.05000
C2481       C  0.10972716  0.55546261  0.61832712    -0.20800
C2482       C  0.11262087  0.53446564  0.63177734    -0.07400
C2483       C  0.11179064  0.53261773  0.66256909     0.13500
C2484       C  0.11049975  0.55310285  0.67889100    -0.20900
C2485       C  0.11054986  0.57565306  0.66541682    -0.07400
C2486       C  0.10881897  0.57617310  0.63470206     0.13500
C2487       C  0.10616110  0.59844353  0.61893137    -0.24200
H2488       H  0.10987530  0.55671568  0.59480189     0.14800
H2489       H  0.11152117  0.55253008  0.70240541     0.14800
C2490       C  0.11264205  0.50948215  0.67863427    -0.24200
H2491       H  0.10231560  0.59389683  0.59531946     0.05000
H2492       H  0.12557913  0.61890971  0.62094593     0.08200
H2493       H  0.08838244  0.59973584  0.62794954     0.08200
H2494       H  0.13335743  0.51145081  0.67622888     0.08200
H2495       H  0.09618040  0.48902842  0.67017924     0.08200
H2496       H  0.10898712  0.50999913  0.70231392     0.05000
C2497       C  0.13800941  0.43959893  0.97167569    -0.20800
C2498       C  0.11352355  0.43760167  0.98260363    -0.07400
C2499       C  0.09252000  0.43430355  0.96279351     0.13500
C2500       C  0.09738110  0.43480380  0.93276157    -0.20900
C2501       C  0.12303613  0.43972714  0.92205087    -0.07400
C2502       C  0.14328109  0.44133557  0.94165557     0.13500
C2503       C  0.17067467  0.44543610  0.93099677    -0.24200
H2504       H  0.15403195  0.44191047  0.98669783     0.14800
H2505       H  0.08190934  0.43354439  0.91757356     0.14800
C2506       C  0.06521532  0.43094019  0.97289276    -0.24200
H2507       H  0.18361911  0.44511170  0.94917998     0.05000
H2508       H  0.18276023  0.46579015  0.91985415     0.08200
H2509       H  0.16684674  0.42853812  0.91561368     0.08200
H2510       H  0.06862748  0.45049048  0.98290227     0.08200
H2511       H  0.05988736  0.40264186  0.48868916     0.08200
H2512       H  0.05049952  0.42607647  0.95452103     0.05000
C2513       C  0.09994274  0.43369524  0.68155489    -0.20800
C2514       C  0.12623373  0.44026357  0.67114809    -0.07400
C2515       C  0.14705769  0.44384587  0.69118240     0.13500
C2516       C  0.14169318  0.44286282  0.72118622    -0.20900
C2517       C  0.11628101  0.43902269  0.73156939    -0.07400
C2518       C  0.09481812  0.43349491  0.71146397     0.13500
C2519       C  0.06659252  0.42781745  0.72128766    -0.24200
H2520       H  0.08392328  0.43073266  0.66615148     0.14800
H2521       H  0.15805095  0.44685070  0.73655200     0.14800
C2522       C  0.17490249  0.44870492  0.68105805    -0.24200
H2523       H  0.05179445  0.42178846  0.70280389     0.05000
H2524       H  0.06831286  0.44669548  0.73126029     0.08200
H2525       H  0.05767749  0.41053189  0.73729262     0.08200
H2526       H  0.18651388  0.46876633  0.66930686     0.08200
H2527       H  0.17175990  0.43152517  0.66644058     0.08200
H2528       H  0.18803925  0.44947561  0.69960651     0.05000
C2529       C  0.23492589  0.44477271  0.80284089    -0.20800
C2530       C  0.26021862  0.46643519  0.81377722    -0.07400
C2531       C  0.25995885  0.48716165  0.83129309     0.13500
C2532       C  0.23457651  0.48599354  0.83654852    -0.20900
C2533       C  0.20934299  0.46482134  0.82476468    -0.07400
C2534       C  0.20957226  0.44368541  0.80792852     0.13500
C2535       C  0.18354014  0.42045364  0.79420873    -0.24200
H2536       H  0.23507322  0.42886801  0.78946320     0.14800
H2537       H  0.23449266  0.50193966  0.84991066     0.14800
C2538       C  0.28610271  0.51027043  0.84505524    -0.24200
H2539       H  0.18803691  0.40685035  0.78047057     0.05000
H2540       H  0.17371523  0.42920217  0.78011335     0.08200
H2541       H  0.16870799  0.40717522  0.81134565     0.08200
H2542       H  0.30058202  0.52417777  0.82802360     0.08200
H2543       H  0.29642342  0.50139132  0.85820712     0.08200
H2544       H  0.28156691  0.52329520  0.85968954     0.05000
C2545       C  0.23607270  0.48866061  0.58117301    -0.20800
C2546       C  0.21075442  0.46596657  0.57156707    -0.07400
C2547       C  0.21114011  0.44378812  0.55706472     0.13500
C2548       C  0.23678197  0.44542490  0.55187843    -0.20900
C2549       C  0.26212671  0.46842324  0.56097086    -0.07400
C2550       C  0.26162739  0.49020395  0.57630282     0.13500
C2551       C  0.28764101  0.51497827  0.58830363    -0.24200
H2552       H  0.23591251  0.50544523  0.59282040     0.14800
H2553       H  0.23703060  0.42870822  0.54021367     0.14800
C2554       C  0.18488442  0.41858697  0.54634811    -0.24200
H2555       H  0.28279771  0.52856634  0.60163310     0.05000
H2556       H  0.30135000  0.52790882  0.57029143     0.08200
H2557       H  0.29897556  0.50794584  0.60243890     0.08200
H2558       H  0.17359485  0.42504817  0.53135935     0.08200
H2559       H  0.17136248  0.40699621  0.56506309     0.08200
H2560       H  0.20706644  0.41408779  0.11493142     0.05000
C2561       C  0.33916050  0.43452182  0.94776768    -0.20800
C2562       C  0.32127215  0.44343456  0.95806514    -0.07400
C2563       C  0.30555227  0.44895686  0.93785682     0.13500
C2564       C  0.30939982  0.44703160  0.90795028    -0.20900
C2565       C  0.32891504  0.44025025  0.89762337    -0.07400
C2566       C  0.34339887  0.43310131  0.91781676     0.13500
C2567       C  0.36311048  0.42374520  0.90801193    -0.24200
H2568       H  0.35106775  0.43009039  0.96326826     0.14800
H2569       H  0.29804556  0.45220042  0.89250204     0.14800
C2570       C  0.28457957  0.45673366  0.94759654    -0.24200
H2571       H  0.37126844  0.41738496  0.92667727     0.05000
H2572       H  0.38122962  0.44086571  0.89656955     0.08200
H2573       H  0.35205475  0.40560939  0.89327211     0.08200
H2574       H  0.29514641  0.47715794  0.95875825     0.08200
H2575       H  0.26929955  0.44058467  0.96258643     0.08200
H2576       H  0.27289201  0.45842876  0.92891924     0.05000
C2577       C  0.33891351  0.43241245  0.66744351    -0.20800
C2578       C  0.32429160  0.44008860  0.64849599    -0.07400
C2579       C  0.30395975  0.44554338  0.65984571     0.13500
C2580       C  0.30002596  0.44483662  0.69005416    -0.20900
C2581       C  0.31570406  0.43857417  0.70912716    -0.07400
C2582       C  0.33480089  0.43142677  0.69762767     0.13500
C2583       C  0.35241564  0.42476040  0.71706572    -0.24200
H2584       H  0.35443545  0.42821446  0.65860598     0.14800
H2585       H  0.28556725  0.45046038  0.69894144     0.14800
C2586       C  0.28784857  0.45413160  0.64044875    -0.24200
H2587       H  0.36697879  0.42076319  0.70438900     0.05000
H2588       H  0.33887260  0.40584043  0.73004790     0.08200
H2589       H  0.36501965  0.44249156  0.73190208     0.08200
H2590       H  0.30256787  0.47299009  0.62803003     0.08200
H2591       H  0.27387460  0.45897943  0.65309572     0.08200
H2592       H  0.27475238  0.43708765  0.62509327     0.05000
C2593       C  0.45332667  0.55507353  0.95401715    -0.20800
C2594       C  0.47253567  0.58058596  0.96689705    -0.07400
C2595       C  0.47264066  0.58326587  0.99762657     0.13500
C2596       C  0.45188244  0.55693133  0.51177322    -0.20900
C2597       C  0.43107612  0.53711081  0.00073916    -0.07400
C2598       C  0.43232111  0.53341786  0.97047566     0.13500
C2599       C  0.41139530  0.50693175  0.95534461    -0.24200
H2600       H  0.45343757  0.55270772  0.93061976     0.14800
H2601       H  0.45268221  0.55868653  0.53528933     0.14800
C2602       C  0.49593973  0.60334671  0.51071349    -0.24200
H2603       H  0.39035617  0.50441246  0.95600613     0.05000
H2604       H  0.41679544  0.50692707  0.93208924     0.08200
H2605       H  0.41082950  0.48883203  0.96603698     0.08200
H2606       H  0.49425154  0.62217715  0.50827297     0.08200
H2607       H  0.51619500  0.60737225  0.50187663     0.08200
H2608       H  0.49574310  0.59936740  0.53441117     0.05000
C2609       C  0.41489123  0.58176791  0.82472696    -0.20800
C2610       C  0.39610355  0.56023831  0.84307515    -0.07400
C2611       C  0.39813374  0.56445173  0.87348509     0.13500
C2612       C  0.42099292  0.58859986  0.88483910    -0.20900
C2613       C  0.44213459  0.60805105  0.86653208    -0.07400
C2614       C  0.43818073  0.60551460  0.83608013     0.13500
C2615       C  0.45884125  0.62723936  0.81547252    -0.24200
H2616       H  0.41298799  0.57877614  0.80135297     0.14800
H2617       H  0.42375545  0.59080479  0.90822993     0.14800
C2618       C  0.37678454  0.54327569  0.89403562    -0.24200
H2619       H  0.45147907  0.62265816  0.79259042     0.05000
H2620       H  0.47913222  0.62812847  0.81642893     0.08200
H2621       H  0.46185740  0.64788462  0.82124871     0.08200
H2622       H  0.37713432  0.52362544  0.89341001     0.08200
H2623       H  0.35571982  0.53906201  0.88792532     0.08200
H2624       H  0.38083404  0.55079371  0.91687745     0.05000
C2625       C  0.56179251  0.70398708  0.77274370    -0.20800
C2626       C  0.56535119  0.68621214  0.75401346    -0.07400
C2627       C  0.57118473  0.66638846  0.76597039     0.13500
C2628       C  0.57128093  0.66351286  0.79634747    -0.20900
C2629       C  0.56639205  0.68038978  0.81515855    -0.07400
C2630       C  0.56257073  0.70160305  0.80314192     0.13500
C2631       C  0.55749605  0.72066937  0.82203723    -0.24200
H2632       H  0.55734152  0.71913943  0.76349637     0.14800
H2633       H  0.57437916  0.64740714  0.80549034     0.14800
C2634       C  0.57579577  0.64716541  0.74683822    -0.24200
H2635       H  0.55392088  0.73524625  0.80889110     0.05000
H2636       H  0.57590718  0.73336245  0.83605696     0.08200
H2637       H  0.53881200  0.70827902  0.83583172     0.08200
H2638       H  0.59469014  0.65947408  0.73332651     0.08200
H2639       H  0.55757419  0.63513431  0.73237889     0.08200
H2640       H  0.57885395  0.63215487  0.75980928     0.05000
C2641       C  0.57095242  0.67097684  0.51407798    -0.20800
C2642       C  0.56202542  0.68885722  0.50397869    -0.07400
C2643       C  0.55640015  0.70440151  0.52426377     0.13500
C2644       C  0.55822443  0.70031827  0.55417142    -0.20900
C2645       C  0.56448739  0.68036020  0.56419318    -0.07400
C2646       C  0.57169940  0.66606804  0.54387705     0.13500
C2647       C  0.57973852  0.64526830  0.55335087    -0.24200
H2648       H  0.57548537  0.65926877  0.49850819     0.14800
H2649       H  0.55296038  0.71146543  0.56978375     0.14800
C2650       C  0.54837480  0.72516005  0.51456717    -0.24200
H2651       H  0.58663407  0.63762176  0.53468866     0.05000
H2652       H  0.56160866  0.62695332  0.56335800     0.08200
H2653       H  0.59712836  0.65500924  0.56922930     0.08200
H2654       H  0.52798895  0.71446869  0.50324430     0.08200
H2655       H  0.56454444  0.74058290  0.49969071     0.08200
H2656       H  0.54641375  0.73661075  0.53329140     0.05000
C2657       C  0.44754952  0.55468647  0.75892448    -0.20800
C2658       C  0.42492300  0.53259308  0.74452683    -0.07400
C2659       C  0.42487327  0.53179035  0.71373634     0.13500
C2660       C  0.44671265  0.55388591  0.69832599    -0.20900
C2661       C  0.46824156  0.57710224  0.71279322    -0.07400
C2662       C  0.46893540  0.57709244  0.74363562     0.13500
C2663       C  0.49184426  0.60059330  0.76088503    -0.24200
H2664       H  0.44763917  0.55535051  0.78250374     0.14800
H2665       H  0.44607654  0.55370303  0.67476288     0.14800
C2666       C  0.40202370  0.50782844  0.69693227    -0.24200
H2667       H  0.49013015  0.59576029  0.78449178     0.05000
H2668       H  0.49077969  0.61978213  0.75851756     0.08200
H2669       H  0.51237956  0.60436681  0.75341004     0.08200
H2670       H  0.38190083  0.50701929  0.69998408     0.08200
H2671       H  0.40007305  0.48800897  0.70435572     0.08200
H2672       H  0.40641181  0.50982847  0.67321057     0.05000
C2673       C  0.41430456  0.58684950  0.57564218    -0.20800
C2674       C  0.39524384  0.56531270  0.59382396    -0.07400
C2675       C  0.39677473  0.56975072  0.62420009     0.13500
C2676       C  0.42001501  0.59341210  0.63581143    -0.20900
C2677       C  0.44174143  0.61237181  0.61772918    -0.07400
C2678       C  0.43777326  0.61030663  0.58724089     0.13500
C2679       C  0.45866151  0.63209437  0.56682047    -0.24200
H2680       H  0.41261554  0.58396322  0.55225973     0.14800
H2681       H  0.42253703  0.59542997  0.65921873     0.14800
C2682       C  0.37444923  0.54931422  0.64447249    -0.24200
H2683       H  0.45098746  0.62821815  0.54402776     0.05000
H2684       H  0.47856640  0.63216363  0.56704335     0.08200
H2685       H  0.46250445  0.65289809  0.57331064     0.08200
H2686       H  0.37376819  0.52915007  0.64453608     0.08200
H2687       H  0.35389454  0.54600802  0.63757815     0.08200
H2688       H  0.37821865  0.55706914  0.66722624     0.05000
C2689       C  0.38417077  0.36656702  0.80013024    -0.20800
C2690       C  0.40600940  0.37755910  0.77978985    -0.07400
C2691       C  0.41072192  0.40057414  0.76259766     0.13500
C2692       C  0.39586812  0.41398114  0.76863336    -0.20900
C2693       C  0.37600271  0.40475625  0.79096019    -0.07400
C2694       C  0.36896650  0.37987966  0.80587680     0.13500
C2695       C  0.34669423  0.36821523  0.82891714    -0.24200
H2696       H  0.38002847  0.34843423  0.81268568     0.14800
H2697       H  0.40052393  0.43246984  0.75647715     0.14800
C2698       C  0.43124068  0.41111430  0.73771188    -0.24200
H2699       H  0.34452363  0.34912747  0.83895355     0.05000
H2700       H  0.32632211  0.36271436  0.81914201     0.08200
H2701       H  0.35194544  0.38382007  0.84636987     0.08200
H2702       H  0.42652235  0.39375981  0.72259084     0.08200
H2703       H  0.45284705  0.42033474  0.74592961     0.08200
H2704       H  0.43018652  0.42751063  0.72509276     0.05000
C2705       C  0.37067854  0.38694784  0.53617384    -0.20800
C2706       C  0.38328966  0.41009180  0.55490123    -0.07400
C2707       C  0.40832157  0.41624497  0.56930064     0.13500
C2708       C  0.42112584  0.40088062  0.56262769    -0.20900
C2709       C  0.40966186  0.37912563  0.54235465    -0.07400
C2710       C  0.38353477  0.37134497  0.52976742     0.13500
C2711       C  0.36982963  0.34756311  0.50860453    -0.24200
H2712       H  0.35126229  0.38174243  0.52554815     0.14800
H2713       H  0.44070899  0.40627139  0.57301163     0.14800
C2714       C  0.42168201  0.43868210  0.59214447    -0.24200
H2715       H  0.34993221  0.34484021  0.50015367     0.05000
H2716       H  0.36516267  0.32793732  0.51951895     0.08200
H2717       H  0.38387674  0.35148559  0.48985680     0.08200
H2718       H  0.40615821  0.43543387  0.60914136     0.08200
H2719       H  0.43013388  0.45950900  0.58215597     0.08200
H2720       H  0.43935955  0.43848918  0.60305100     0.05000
C2721       C  0.43876709  0.30161194  0.92833769    -0.20800
C2722       C  0.43759901  0.32452690  0.93903864    -0.07400
C2723       C  0.43360895  0.34169085  0.91929260     0.13500
C2724       C  0.43285203  0.33659385  0.88936074    -0.20900
C2725       C  0.43708467  0.31557501  0.87865617    -0.07400
C2726       C  0.43913116  0.29724805  0.89830439     0.13500
C2727       C  0.44218112  0.27341568  0.88767102    -0.24200
H2728       H  0.44145003  0.28824773  0.94344713     0.14800
H2729       H  0.43121372  0.35053063  0.87414683     0.14800
C2730       C  0.43060145  0.36570284  0.92941588    -0.24200
H2731       H  0.44209820  0.26037950  0.90595783     0.05000
H2732       H  0.46212665  0.28132576  0.87581198     0.08200
H2733       H  0.42460523  0.25999827  0.87296287     0.08200
H2734       H  0.45030929  0.38214725  0.93924349     0.08200
H2735       H  0.41349199  0.35824226  0.94551823     0.08200
H2736       H  0.42556865  0.37540188  0.91113064     0.05000
C2737       C  0.44924437  0.30151224  0.64738195    -0.20800
C2738       C  0.43989291  0.31488350  0.62860225    -0.07400
C2739       C  0.42816784  0.33002819  0.64054133     0.13500
C2740       C  0.42870617  0.33365073  0.67081164    -0.20900
C2741       C  0.43956567  0.32159161  0.68935809    -0.07400
C2742       C  0.44881162  0.30433543  0.67762810     0.13500
C2743       C  0.46005951  0.29049432  0.69684244    -0.24200
H2744       H  0.45798502  0.28970553  0.63828123     0.14800
H2745       H  0.42134593  0.34660939  0.68004794     0.14800
C2746       C  0.41643362  0.34366445  0.62159657    -0.24200
H2747       H  0.46762553  0.27876903  0.68407083     0.05000
H2748       H  0.44351349  0.27566403  0.71178912     0.08200
H2749       H  0.47772455  0.30662220  0.70967785     0.08200
H2750       H  0.39866228  0.32759736  0.60873750     0.08200
H2751       H  0.43276418  0.35885089  0.60668927     0.08200
H2752       H  0.40861056  0.35498410  0.63468321     0.05000
C2753       C  0.76434772  0.55738057  0.94532444    -0.20800
C2754       C  0.74295619  0.53487256  0.92998873    -0.07400
C2755       C  0.74754992  0.51340719  0.92023526     0.13500
C2756       C  0.77272716  0.51463229  0.92704450    -0.20900
C2757       C  0.79390970  0.53692233  0.94276349    -0.07400
C2758       C  0.78969574  0.55877144  0.95175781     0.13500
C2759       C  0.81045392  0.58441363  0.47136646    -0.24200
H2760       H  0.76108122  0.57392759  0.95273832     0.14800
H2761       H  0.77603541  0.49809222  0.91971016     0.14800
C2762       C  0.72660276  0.48954249  0.90178857    -0.24200
H2763       H  0.80234333  0.59796028  0.47850343     0.05000
H2764       H  0.82962467  0.59748526  0.45851028     0.08200
H2765       H  0.81562607  0.57651139  0.49112312     0.08200
H2766       H  0.72150626  0.49767964  0.88215518     0.08200
H2767       H  0.70741234  0.47620690  0.91449403     0.08200
H2768       H  0.73472865  0.47610103  0.89431937     0.05000
C2769       C  0.60075325  0.59067241  0.94542625    -0.20800
C2770       C  0.62431273  0.59701980  0.92864440    -0.07400
C2771       C  0.63523159  0.62022490  0.90965628     0.13500
C2772       C  0.62090005  0.63484799  0.90619556    -0.20900
C2773       C  0.59606773  0.62690373  0.92133578    -0.07400
C2774       C  0.58667747  0.60536669  0.94225238     0.13500
C2775       C  0.56189723  0.59784839  0.96155379    -0.24200
H2776       H  0.59290840  0.57361587  0.96079306     0.14800
H2777       H  0.62830874  0.65160696  0.89047137     0.14800
C2778       C  0.66105088  0.62877441  0.89192530    -0.24200
H2779       H  0.55902367  0.58223242  0.97824575     0.05000
H2780       H  0.54246801  0.58876866  0.94856449     0.08200
H2781       H  0.56497113  0.61667098  0.97308502     0.08200
H2782       H  0.65803729  0.61117982  0.87808505     0.08200
H2783       H  0.67911378  0.63512232  0.90658709     0.08200
H2784       H  0.66603925  0.64665838  0.87748404     0.05000
C2785       C  0.60830825  0.43749177  0.99774637    -0.20800
C2786       C  0.60880698  0.43945444  0.96732274    -0.07400
C2787       C  0.58964529  0.41596911  0.95086571     0.13500
C2788       C  0.56761059  0.39329370  0.96524885    -0.20900
C2789       C  0.56474661  0.39328846  0.99553958    -0.07400
C2790       C  0.58722199  0.41088941  0.50997207     0.13500
C2791       C  0.58824906  0.40836124  0.54256018    -0.24200
H2792       H  0.62569297  0.45037126  0.50895451     0.14800
H2793       H  0.55115616  0.37666332  0.95262541     0.14800
C2794       C  0.59066536  0.41551220  0.91811646    -0.24200
H2795       H  0.60820166  0.42508203  0.55180016     0.05000
H2796       H  0.58633190  0.38811734  0.54807584     0.08200
H2797       H  0.57118335  0.40976244  0.55317954     0.08200
H2798       H  0.61089198  0.41813370  0.91102149     0.08200
H2799       H  0.58819199  0.43243334  0.90889232     0.08200
H2800       H  0.57381879  0.39557801  0.90901718     0.05000
C2801       C  0.55066267  0.44765542  0.88662087    -0.20800
C2802       C  0.57346338  0.46994512  0.87259572    -0.07400
C2803       C  0.57301959  0.47212070  0.84196598     0.13500
C2804       C  0.55132125  0.45046405  0.82609166    -0.20900
C2805       C  0.53033740  0.42644117  0.83993457    -0.07400
C2806       C  0.52923406  0.42571225  0.87078736     0.13500
C2807       C  0.50586120  0.40190733  0.88732727    -0.24200
H2808       H  0.55062551  0.44630711  0.91017187     0.14800
H2809       H  0.55193821  0.45150136  0.80251282     0.14800
C2810       C  0.59537072  0.49706738  0.82585285    -0.24200
H2811       H  0.50715514  0.40626811  0.91103039     0.05000
H2812       H  0.50676862  0.38266177  0.88470943     0.08200
H2813       H  0.48548671  0.39838222  0.87947387     0.08200
H2814       H  0.61561204  0.49788262  0.82734735     0.08200
H2815       H  0.59745286  0.51638627  0.83512092     0.08200
H2816       H  0.59032385  0.49636576  0.80238115     0.05000
C2817       C  0.74762959  0.51531734  0.67193667    -0.20800
C2818       C  0.74423321  0.53658234  0.68368768    -0.07400
C2819       C  0.76634724  0.55790443  0.70004966     0.13500
C2820       C  0.79123534  0.55751670  0.70369771    -0.20900
C2821       C  0.79449514  0.53605977  0.69211208    -0.07400
C2822       C  0.77217162  0.51457037  0.67603866     0.13500
C2823       C  0.77386386  0.49079766  0.66266553    -0.24200
H2824       H  0.73084219  0.49902294  0.65932894     0.14800
H2825       H  0.80799957  0.57369516  0.71645097     0.14800
C2826       C  0.76354499  0.58044006  0.71483678    -0.24200
H2827       H  0.75536291  0.47732762  0.64903969     0.05000
H2828       H  0.77477675  0.47742845  0.67994386     0.08200
H2829       H  0.79250192  0.49891599  0.64855608     0.08200
H2830       H  0.74504357  0.57097106  0.72931234     0.08200
H2831       H  0.76143824  0.59377738  0.69838965     0.08200
H2832       H  0.78205386  0.59409152  0.72837234     0.05000
C2833       C  0.60171879  0.58381427  0.64871669    -0.20800
C2834       C  0.62393261  0.59464061  0.66844268    -0.07400
C2835       C  0.63342001  0.62129314  0.68056461     0.13500
C2836       C  0.61846491  0.63497393  0.67500323    -0.20900
C2837       C  0.59471590  0.62286487  0.65710983    -0.07400
C2838       C  0.58739307  0.59772725  0.64241299     0.13500
C2839       C  0.56496029  0.58561072  0.61942243    -0.24200
H2840       H  0.59527099  0.56401036  0.63835179     0.14800
H2841       H  0.62468294  0.65462277  0.68554959     0.14800
C2842       C  0.65848917  0.63486945  0.70018462    -0.24200
H2843       H  0.56425831  0.56766373  0.60819270     0.05000
H2844       H  0.56918160  0.60162345  0.60272882     0.08200
H2845       H  0.54414833  0.57799090  0.62920634     0.08200
H2846       H  0.67724574  0.63848780  0.68802989     0.08200
H2847       H  0.65518927  0.62130561  0.71918753     0.08200
H2848       H  0.66249503  0.65528342  0.70836435     0.05000
C2849       C  0.59335138  0.41768498  0.70633257    -0.20800
C2850       C  0.60994324  0.44079175  0.72415870    -0.07400
C2851       C  0.60616770  0.43795375  0.75464400     0.13500
C2852       C  0.58329919  0.41379400  0.76592622    -0.20900
C2853       C  0.56357355  0.39323434  0.74737177    -0.07400
C2854       C  0.56966822  0.39417088  0.71745650     0.13500
C2855       C  0.55083722  0.37149140  0.69663515    -0.24200
H2856       H  0.59674857  0.41925017  0.68298959     0.14800
H2857       H  0.57899946  0.41267878  0.78904460     0.14800
C2858       C  0.62533541  0.46067616  0.77529643    -0.24200
H2859       H  0.56296343  0.36368179  0.68503322     0.05000
H2860       H  0.54222791  0.37985505  0.68041770     0.08200
H2861       H  0.53329930  0.35352518  0.70783441     0.08200
H2862       H  0.62353258  0.47939872  0.77255905     0.08200
H2863       H  0.64717968  0.46615745  0.77129643     0.08200
H2864       H  0.62023901  0.45401906  0.79834447     0.05000
C2865       C  0.66988376  0.57394352  0.82149648    -0.20800
C2866       C  0.68637720  0.56343031  0.83190521    -0.07400
C2867       C  0.70085997  0.55608186  0.81191720     0.13500
C2868       C  0.69668063  0.55737319  0.78206974    -0.20900
C2869       C  0.67804396  0.56525119  0.77179328    -0.07400
C2870       C  0.66527957  0.57466614  0.79160193     0.13500
C2871       C  0.64680534  0.58537613  0.78134709    -0.24200
H2872       H  0.65899216  0.57978978  0.83684573     0.14800
H2873       H  0.70660586  0.55039763  0.76672311     0.14800
C2874       C  0.72047218  0.54656064  0.82179839    -0.24200
H2875       H  0.63959976  0.59303357  0.79972879     0.05000
H2876       H  0.62807958  0.56864401  0.77030014     0.08200
H2877       H  0.65857044  0.60292352  0.76607107     0.08200
H2878       H  0.70887645  0.52615407  0.83290894     0.08200
H2879       H  0.73628082  0.56218248  0.83680580     0.08200
H2880       H  0.73165947  0.54399989  0.80317137     0.05000
C2881       C  0.69783391  0.55081594  0.56423232    -0.20800
C2882       C  0.68312673  0.55858431  0.58300646    -0.07400
C2883       C  0.66575465  0.56776423  0.57117077     0.13500
C2884       C  0.66344229  0.56870560  0.54086786    -0.20900
C2885       C  0.67741459  0.56003012  0.52214142    -0.07400
C2886       C  0.69484713  0.55090828  0.53396538     0.13500
C2887       C  0.70883467  0.53897480  0.51579410    -0.24200
H2888       H  0.71058491  0.54312208  0.57331241     0.14800
H2889       H  0.64952455  0.57490321  0.53169878     0.14800
C2890       C  0.64785904  0.57443357  0.59020788    -0.24200
H2891       H  0.73174951  0.55173183  0.51870235     0.05000
H2892       H  0.69873174  0.52768956  0.99997888     0.08200
H2893       H  0.72592246  0.53917343  0.02666600     0.08200
H2894       H  0.66118995  0.59248324  0.60436640     0.08200
H2895       H  0.63397306  0.55614783  0.60389601     0.08200
H2896       H  0.63448326  0.57980408  0.57717083     0.05000
C2897       C  0.53069086  0.42326782  0.61870762    -0.20800
C2898       C  0.53347487  0.42644953  0.58838762    -0.07400
C2899       C  0.55527263  0.45170452  0.57664990     0.13500
C2900       C  0.57545395  0.47142104  0.59548262    -0.20900
C2901       C  0.57383481  0.46706506  0.62562670    -0.07400
C2902       C  0.55033609  0.44341327  0.63750573     0.13500
C2903       C  0.54658482  0.43838284  0.66982485    -0.24200
H2904       H  0.51357790  0.40433093  0.62775767     0.14800
H2905       H  0.59318173  0.48993543  0.58658352     0.14800
C2906       C  0.55831192  0.45778438  0.54443719    -0.24200
H2907       H  0.52767376  0.41818850  0.67513164     0.05000
H2908       H  0.54445202  0.45506862  0.68035745     0.08200
H2909       H  0.56479255  0.43820586  0.67906968     0.08200
H2910       H  0.53970675  0.45802521  0.53627116     0.08200
H2911       H  0.56066985  0.44191550  0.53243392     0.08200
H2912       H  0.57684710  0.47837225  0.53948455     0.05000
C2913       C  0.51316551  0.77291446  0.89458895    -0.20800
C2914       C  0.53878650  0.79723319  0.88907241    -0.07400
C2915       C  0.56316554  0.79526629  0.88781370     0.13500
C2916       C  0.56124075  0.76958923  0.89347602    -0.20900
C2917       C  0.53560356  0.74537576  0.89942618    -0.07400
C2918       C  0.51104544  0.74712805  0.89919356     0.13500
C2919       C  0.48223739  0.72225936  0.90368750    -0.24200
H2920       H  0.49427638  0.77391016  0.89522829     0.14800
H2921       H  0.58003990  0.76844399  0.89293822     0.14800
C2922       C  0.59126179  0.81965768  0.87984579    -0.24200
H2923       H  0.46579282  0.72786387  0.90259119     0.05000
H2924       H  0.48074008  0.71301216  0.92545830     0.08200
H2925       H  0.47753579  0.70663871  0.88635522     0.08200
H2926       H  0.59802901  0.83626779  0.89645977     0.08200
H2927       H  0.59015044  0.82772709  0.85811443     0.08200
H2928       H  0.60752072  0.81380657  0.87870108     0.05000
C2929       C  0.51601395  0.77041123  0.63294901    -0.20800
C2930       C  0.53880192  0.79600382  0.64179962    -0.07400
C2931       C  0.56161507  0.79598702  0.65562362     0.13500
C2932       C  0.56059164  0.77061497  0.66056653    -0.20900
C2933       C  0.53749978  0.74505027  0.65232556    -0.07400
C2934       C  0.51500837  0.74509991  0.63785468     0.13500
C2935       C  0.49001289  0.71878541  0.62672661    -0.24200
H2936       H  0.49870287  0.77012099  0.62189633     0.14800
H2937       H  0.57785695  0.77074145  0.67153773     0.14800
C2938       C  0.58696109  0.82232744  0.66599356    -0.24200
H2939       H  0.47577349  0.72316836  0.61394506     0.05000
H2940       H  0.47775419  0.70531102  0.64518601     0.08200
H2941       H  0.49689678  0.70748575  0.61228902     0.08200
H2942       H  0.58065553  0.83341092  0.68143120     0.08200
H2943       H  0.59815514  0.83589716  0.64717471     0.08200
H2944       H  0.60191834  0.81805969  0.67747356     0.05000
C2945       C  0.57274134  0.90924669  0.78175312    -0.20800
C2946       C  0.56687156  0.88343635  0.79269269    -0.07400
C2947       C  0.56418532  0.86253090  0.77340200     0.13500
C2948       C  0.56504479  0.86719121  0.74335946    -0.20900
C2949       C  0.56768293  0.89184553  0.73242159    -0.07400
C2950       C  0.57272729  0.91361756  0.75178778     0.13500
C2951       C  0.57750601  0.94124571  0.74110236    -0.24200
H2952       H  0.57508870  0.92529857  0.79674759     0.14800
H2953       H  0.56159070  0.85070110  0.72838428     0.14800
C2954       C  0.56007070  0.83527732  0.78442386    -0.24200
H2955       H  0.58318699  0.95638417  0.75917888     0.05000
H2956       H  0.55833479  0.93871902  0.73090470     0.08200
H2957       H  0.59478425  0.95020161  0.72505610     0.08200
H2958       H  0.53997842  0.82352756  0.79616010     0.08200
H2959       H  0.57737226  0.83923201  0.79933107     0.08200
H2960       H  0.55979572  0.82195722  0.76633675     0.05000
C2961       C  0.56071524  0.85879273  0.52397813    -0.20800
C2962       C  0.56630050  0.88106196  0.54243564    -0.07400
C2963       C  0.57470733  0.90742458  0.53028686     0.13500
C2964       C  0.57633537  0.91034714  0.00020585    -0.20900
C2965       C  0.56769354  0.88754574  0.98165103    -0.07400
C2966       C  0.56014485  0.86125492  0.99333745     0.13500
C2967       C  0.55150869  0.83635729  0.97403364    -0.24200
H2968       H  0.55435630  0.83864216  0.53339626     0.14800
H2969       H  0.58222207  0.93046857  0.99095886     0.14800
C2970       C  0.58108424  0.93202812  0.54911891    -0.24200
H2971       H  0.54561590  0.81731095  0.98688393     0.05000
H2972       H  0.56904771  0.84020878  0.95954677     0.08200
H2973       H  0.53329911  0.83238577  0.96059349     0.08200
H2974       H  0.59925997  0.93735148  0.56325851     0.08200
H2975       H  0.56271121  0.92685051  0.56280270     0.08200
H2976       H  0.58608867  0.95070086  0.53600328     0.05000
C2977       C  0.76084353  0.21202694  0.84587431    -0.20800
C2978       C  0.74119414  0.21424521  0.86302082    -0.07400
C2979       C  0.74746887  0.24081896  0.87304817     0.13500
C2980       C  0.77281770  0.26422303  0.86519585    -0.20900
C2981       C  0.79231441  0.26203756  0.84786149    -0.07400
C2982       C  0.78634749  0.23551088  0.83823178     0.13500
C2983       C  0.80623191  0.23171121  0.81928268    -0.24200
H2984       H  0.75610857  0.19176713  0.83812064     0.14800
H2985       H  0.77759153  0.28449971  0.87294717     0.14800
C2986       C  0.72818902  0.24493357  0.89272670    -0.24200
H2987       H  0.79734129  0.20971741  0.81249467     0.05000
H2988       H  0.82572649  0.23783388  0.83140039     0.08200
H2989       H  0.81103694  0.24452818  0.79930272     0.08200
H2990       H  0.72340648  0.23182533  0.91247598     0.08200
H2991       H  0.70866991  0.23954906  0.88104237     0.08200
H2992       H  0.73762098  0.26686311  0.89998266     0.05000
C2993       C  0.62980006  0.01982189  0.86512900    -0.20800
C2994       C  0.61793679  0.03494446  0.87614532    -0.07400
C2995       C  0.59390896  0.02119337  0.89386072     0.13500
C2996       C  0.58219727  0.99281824  0.89955802    -0.20900
C2997       C  0.59309108  0.97716637  0.88753863    -0.07400
C2998       C  0.61750970  0.99102518  0.87026259     0.13500
C2999       C  0.63015662  0.97564109  0.85624901    -0.24200
H3000       H  0.64824530  0.03041620  0.85162573     0.14800
H3001       H  0.56381073  0.98261660  0.91318089     0.14800
C3002       C  0.58040036  0.03615953  0.90721567    -0.24200
H3003       H  0.64854268  0.98961891  0.84271551     0.05000
H3004       H  0.61459032  0.95895579  0.84192482     0.08200
H3005       H  0.63717939  0.96646670  0.87325196     0.08200
H3006       H  0.57129543  0.04302522  0.88998917     0.08200
H3007       H  0.59593820  0.05441515  0.91983450     0.08200
H3008       H  0.56320470  0.02255852  0.92225049     0.05000
C3009       C  0.74245555  0.23105613  0.59532863    -0.20800
C3010       C  0.74467714  0.21217928  0.61365213    -0.07400
C3011       C  0.77132968  0.21841077  0.62340423     0.13500
C3012       C  0.79479925  0.24360641  0.61506892    -0.20900
C3013       C  0.79251167  0.26273893  0.59717505    -0.07400
C3014       C  0.76591121  0.25610606  0.58679511     0.13500
C3015       C  0.76192444  0.27466269  0.56596710    -0.24200
H3016       H  0.72213289  0.22602014  0.58731818     0.14800
H3017       H  0.81514269  0.24854300  0.62290467     0.14800
C3018       C  0.77533801  0.19917917  0.64316550    -0.24200
H3019       H  0.73998149  0.26499868  0.55852145     0.05000
H3020       H  0.77516715  0.27873679  0.54642946     0.08200
H3021       H  0.76733998  0.29455544  0.57672774     0.08200
H3022       H  0.76916534  0.17937627  0.63175150     0.08200
H3023       H  0.76266082  0.19499053  0.66316622     0.08200
H3024       H  0.79743118  0.20829345  0.64987552     0.05000
C3025       C  0.59729836  0.01614995  0.60918773    -0.20800
C3026       C  0.62411062  0.03264289  0.62078786    -0.07400
C3027       C  0.63667410  0.01959083  0.63562324     0.13500
C3028       C  0.62113193  0.99063235  0.64015788    -0.20900
C3029       C  0.59342767  0.97467235  0.63053691    -0.07400
C3030       C  0.58168563  0.98759282  0.61404355     0.13500
C3031       C  0.55263034  0.97171456  0.60143343    -0.24200
H3032       H  0.58796574  0.02588118  0.59683074     0.14800
H3033       H  0.63024305  0.98058362  0.65234704     0.14800
C3034       C  0.66580616  0.03596026  0.64761612    -0.24200
H3035       H  0.54823373  0.98488947  0.58686843     0.05000
H3036       H  0.53686918  0.96420990  0.61905275     0.08200
H3037       H  0.55000406  0.95385803  0.58845335     0.08200
H3038       H  0.66728920  0.05181265  0.66323351     0.08200
H3039       H  0.68084784  0.04631519  0.62958357     0.08200
H3040       H  0.67187094  0.02240378  0.65923516     0.05000
C3041       C  0.66961528  0.09858265  0.50881491    -0.20800
C3042       C  0.68240830  0.12163363  0.52738157    -0.07400
C3043       C  0.69982416  0.14841481  0.51560867     0.13500
C3044       C  0.69841364  0.15297837  0.98438308    -0.20900
C3045       C  0.68519191  0.13020823  0.96533453    -0.07400
C3046       C  0.66998071  0.10296630  0.97696470     0.13500
C3047       C  0.65456901  0.07771337  0.95779111    -0.24200
H3048       H  0.65634675  0.07809420  0.51807703     0.14800
H3049       H  0.70979177  0.17385465  0.97551574     0.14800
C3050       C  0.71395879  0.17387737  0.53472912    -0.24200
H3051       H  0.64267445  0.05832178  0.97067704     0.05000
H3052       H  0.66953782  0.07538628  0.94391530     0.08200
H3053       H  0.63954919  0.07989439  0.94387847     0.08200
H3054       H  0.72877937  0.17237506  0.54965565     0.08200
H3055       H  0.69816484  0.17573803  0.54766638     0.08200
H3056       H  0.72590154  0.19322273  0.52178025     0.05000
C3057       C  0.66346841  0.10198253  0.72613812    -0.20800
C3058       C  0.68546843  0.12721100  0.71573640    -0.07400
C3059       C  0.70399613  0.14751183  0.73551933     0.13500
C3060       C  0.69851922  0.14310042  0.76541615    -0.20900
C3061       C  0.67467760  0.11913498  0.77568276    -0.07400
C3062       C  0.65761407  0.09774886  0.75593118     0.13500
C3063       C  0.63312496  0.07056590  0.76599407    -0.24200
H3064       H  0.64957175  0.08633541  0.71075284     0.14800
H3065       H  0.71198322  0.15913165  0.78068032     0.14800
C3066       C  0.72938997  0.17375853  0.72513544    -0.24200
H3067       H  0.62346759  0.05563243  0.74773708     0.05000
H3068       H  0.61679365  0.07396534  0.77541627     0.08200
H3069       H  0.64008514  0.06090070  0.78252380     0.08200
H3070       H  0.72322135  0.18629610  0.71180780     0.08200
H3071       H  0.74258488  0.16832963  0.71187076     0.08200
H3072       H  0.74213546  0.18687479  0.74360720     0.05000
C3073       C  0.44497761  0.23426631  0.79052085    -0.20800
C3074       C  0.46678730  0.25934626  0.77930737    -0.07400
C3075       C  0.48799215  0.25890696  0.76273787     0.13500
C3076       C  0.48642092  0.23347923  0.75747958    -0.20900
C3077       C  0.46490467  0.20842561  0.76903561    -0.07400
C3078       C  0.44396927  0.20889010  0.78606260     0.13500
C3079       C  0.42120637  0.18315864  0.80068550    -0.24200
H3080       H  0.42901330  0.23463452  0.80362032     0.14800
H3081       H  0.50247358  0.23325620  0.74439414     0.14800
C3082       C  0.51246413  0.28491800  0.75037283    -0.24200
H3083       H  0.40784400  0.18786460  0.81460776     0.05000
H3084       H  0.43051338  0.17386427  0.81477728     0.08200
H3085       H  0.40755693  0.16783348  0.78411348     0.08200
H3086       H  0.52577619  0.29852528  0.76824660     0.08200
H3087       H  0.50513396  0.29630767  0.73687105     0.08200
H3088       H  0.52579447  0.28018780  0.73642684     0.05000
C3089       C  0.57791379  0.10787418  0.70413597    -0.20800
C3090       C  0.57603327  0.10961127  0.67384660    -0.07400
C3091       C  0.55221842  0.10880575  0.66187446     0.13500
C3092       C  0.53271190  0.10950550  0.68060618    -0.20900
C3093       C  0.53599155  0.11042214  0.71094879    -0.07400
C3094       C  0.55812555  0.10800044  0.72288892     0.13500
C3095       C  0.56212875  0.10708834  0.75525046    -0.24200
H3096       H  0.59578679  0.10773823  0.71326425     0.14800
H3097       H  0.51532927  0.11051280  0.67144719     0.14800
C3098       C  0.54789219  0.10884946  0.62951169    -0.24200
H3099       H  0.58096839  0.10592207  0.76042589     0.05000
H3100       H  0.54392828  0.08839513  0.76471112     0.08200
H3101       H  0.56457576  0.12603219  0.76582703     0.08200
H3102       H  0.56562774  0.12750604  0.61956178     0.08200
H3103       H  0.54609094  0.08986647  0.61966990     0.08200
H3104       H  0.52859246  0.10909778  0.62417074     0.05000
C3105       C  0.56584127  0.18062178  0.83636497    -0.20800
C3106       C  0.56432491  0.17964367  0.80592222    -0.07400
C3107       C  0.58813581  0.18493972  0.78972534     0.13500
C3108       C  0.60992714  0.18422808  0.80410225    -0.20900
C3109       C  0.60885006  0.17978179  0.83418150    -0.07400
C3110       C  0.58823992  0.18119649  0.85083315     0.13500
C3111       C  0.58816192  0.18055071  0.88360728    -0.24200
H3112       H  0.54812093  0.17796439  0.84879134     0.14800
H3113       H  0.62653961  0.18455335  0.79153848     0.14800
C3114       C  0.58975686  0.18884117  0.75718128    -0.24200
H3115       H  0.57046710  0.18188756  0.89282873     0.05000
H3116       H  0.60774320  0.19851612  0.89196156     0.08200
H3117       H  0.58632250  0.16093404  0.89143405     0.08200
H3118       H  0.58713516  0.20671126  0.75160305     0.08200
H3119       H  0.57338401  0.16986044  0.74619663     0.08200
H3120       H  0.61019713  0.19328587  0.74846624     0.05000
C3121       C  0.44555933  0.23713295  0.51388715    -0.20800
C3122       C  0.46732056  0.25816598  0.53028158    -0.07400
C3123       C  0.48780393  0.25318736  0.54236157     0.13500
C3124       C  0.48645311  0.22788599  0.53681021    -0.20900
C3125       C  0.46514022  0.20714804  0.51983148    -0.07400
C3126       C  0.44408487  0.21165525  0.50860664     0.13500
C3127       C  0.42046581  0.19022383  0.49034763    -0.24200
H3128       H  0.42976435  0.24078845  0.50480829     0.24400
H3129       H  0.49701681  0.22139477  0.05399514     0.14800
C3130       C  0.50432909  0.27045435  0.07156434    -0.24200
H3131       H  0.42893671  0.18468879  0.47141059     0.05000
H3132       H  0.40697856  0.19799232  0.48199634     0.08200
H3133       H  0.40717443  0.17137752  0.50352371     0.08200
H3134       H  0.50177281  0.27952693  0.58030755     0.08200
H3135       H  0.52082893  0.29017390  0.06182008     0.08200
H3136       H  0.51484703  0.26067127  0.08276467     0.05000
C3137       C  0.54985045  0.10532125  0.91519649    -0.20800
C3138       C  0.57440988  0.10917073  0.92810137    -0.07400
C3139       C  0.57608699  0.10856887  0.95879817     0.13500
C3140       C  0.55509547  0.10851186  0.97556384    -0.20900
C3141       C  0.53262243  0.10897961  0.96239478    -0.07400
C3142       C  0.52888182  0.10529433  0.93196653     0.13500
C3143       C  0.50312428  0.10162003  0.91696798    -0.24200
H3144       H  0.54795848  0.10458068  0.89170726     0.14800
H3145       H  0.55736049  0.11015705  0.99903321     0.14800
C3146       C  0.59984127  0.10815610  0.97409011    -0.24200
H3147       H  0.50271343  0.09640341  0.89359181     0.05000
H3148       H  0.50233012  0.12102252  0.91803562     0.08200
H3149       H  0.48423640  0.08438683  0.92736942     0.08200
H3150       H  0.61958386  0.12818244  0.97123671     0.08200
H3151       H  0.60217979  0.09091255  0.96541237     0.08200
H3152       H  0.59468233  0.10126384  0.49766483     0.05000
C3153       C  0.59509904  0.17945621  0.59498893    -0.20800
C3154       C  0.61214002  0.17373978  0.57723252    -0.07400
C3155       C  0.60863248  0.17311689  0.54667633     0.13500
C3156       C  0.58540477  0.17336791  0.53524743    -0.20900
C3157       C  0.56545951  0.17369551  0.55363673    -0.07400
C3158       C  0.57145376  0.17896450  0.58357884     0.13500
C3159       C  0.55253484  0.18318025  0.60362935    -0.24200
H3160       H  0.59833269  0.18112769  0.61830202     0.14800
H3161       H  0.58128129  0.17020009  0.51210554     0.14800
C3162       C  0.62863827  0.17121791  0.52601475    -0.24200
H3163       H  0.56106489  0.18836205  0.62605814     0.05000
H3164       H  0.53173877  0.16406665  0.60490038     0.08200
H3165       H  0.55022172  0.20061043  0.59548632     0.08200
H3166       H  0.62709641  0.15069768  0.52763189     0.08200
H3167       H  0.65026535  0.18793477  0.53097007     0.08200
H3168       H  0.62414261  0.17375323  0.50304927     0.05000
C3169       C  0.44873819  0.14285419  0.87021895    -0.20800
C3170       C  0.44039114  0.11621589  0.85986775    -0.07400
C3171       C  0.43092198  0.09387705  0.87965190     0.13500
C3172       C  0.43132857  0.09906206  0.90958902    -0.20900
C3173       C  0.44203902  0.12621615  0.92021855    -0.07400
C3174       C  0.45020367  0.14832655  0.90010782     0.13500
C3175       C  0.46063762  0.17781637  0.90965706    -0.24200
H3176       H  0.45589821  0.15984989  0.85484360     0.14800
H3177       H  0.42505897  0.08207213  0.92482805     0.14800
C3178       C  0.42090667  0.06472311  0.86930222    -0.24200
H3179       H  0.46426257  0.19176572  0.89087028     0.05000
H3180       H  0.48074961  0.18635887  0.92131678     0.08200
H3181       H  0.44487144  0.17835704  0.92380319     0.08200
H3182       H  0.43833947  0.06374237  0.85898222     0.08200
H3183       H  0.40377291  0.05838984  0.85333934     0.08200
H3184       H  0.41298346  0.04957176  0.88753769     0.05000
C3185       C  0.43216033  0.09418215  0.62808646    -0.20800
C3186       C  0.44007983  0.11691001  0.60953721    -0.07400
C3187       C  0.44671917  0.14293979  0.62125895     0.13500
C3188       C  0.44635899  0.14582019  0.65151320    -0.20900
C3189       C  0.43979448  0.12341356  0.67019279    -0.07400
C3190       C  0.43189951  0.09707172  0.65833414     0.13500
C3191       C  0.42521222  0.07247657  0.67740903    -0.24200
H3192       H  0.42737259  0.07437697  0.61886585     0.14800
H3193       H  0.45278952  0.16605090  0.66074222     0.14800
C3194       C  0.45630867  0.16820156  0.60219596    -0.24200
H3195       H  0.42045898  0.05381858  0.66441004     0.05000
H3196       H  0.40668957  0.06712655  0.69096755     0.08200
H3197       H  0.44323048  0.07744714  0.69168608     0.08200
H3198       H  0.43950793  0.16475434  0.58681555     0.08200
H3199       H  0.47510393  0.17231733  0.58974337     0.08200
H3200       H  0.46173479  0.18706782  0.61515478     0.05000
C3201       C  0.26014473  0.77527735  0.97054300    -0.20800
C3202       C  0.26007581  0.79349110  0.99142976    -0.07400
C3203       C  0.23457948  0.78705344  0.00485141     0.13500
C3204       C  0.21002751  0.76222930  0.99742117    -0.20900
C3205       C  0.21030897  0.74370985  0.97696161    -0.07400
C3206       C  0.23564603  0.75072428  0.96285675     0.13500
C3207       C  0.23694329  0.73305152  0.93881249    -0.24200
H3208       H  0.27952657  0.78054127  0.95980218     0.14800
H3209       H  0.19062540  0.75693939  0.00811502     0.14800
C3210       C  0.23321687  0.80562444  0.02777265    -0.24200
H3211       H  0.25790327  0.74297172  0.92862857     0.05000
H3212       H  0.22168261  0.72993532  0.92155254     0.08200
H3213       H  0.23239558  0.71264135  0.94747708     0.08200
H3214       H  0.23889741  0.82606879  0.01820438     0.08200
H3215       H  0.24092951  0.82064593  0.52616306     0.08200
H3216       H  0.21194815  0.79657555  0.03704078     0.05000
C3217       C  0.39320859  0.01909847  0.99154680    -0.20800
C3218       C  0.41081901  0.02908453  0.51434309    -0.07400
C3219       C  0.41242695  0.01002564  0.53330255     0.13500
C3220       C  0.39810245  0.98177792  0.52619931    -0.20900
C3221       C  0.38209903  0.97208690  0.50084142    -0.07400
C3222       C  0.37843513  0.99049706  0.98518845     0.13500
C3223       C  0.35974042  0.98016719  0.95891468    -0.24200
H3224       H  0.39098388  0.03343423  0.97751283     0.14800
H3225       H  0.39995899  0.96717617  0.54017254     0.14800
C3226       C  0.42903041  0.01927415  0.56114987    -0.24200
H3227       H  0.35965488  0.99742834  0.94702396     0.05000
H3228       H  0.33805676  0.96519904  0.96574904     0.08200
H3229       H  0.36700554  0.96971729  0.94373120     0.08200
H3230       H  0.42199479  0.03101177  0.57467875     0.08200
H3231       H  0.45154976  0.03260334  0.55632737     0.08200
H3232       H  0.42637139  0.00131482  0.57414362     0.05000
C3233       C  0.47598622  0.90095812  0.55446963    -0.20800
C3234       C  0.47243110  0.89960749  0.58474501    -0.07400
C3235       C  0.45042289  0.90219635  0.59676945     0.13500
C3236       C  0.43014225  0.90133078  0.57809202    -0.20900
C3237       C  0.43195763  0.89924211  0.54787251    -0.07400
C3238       C  0.45630654  0.90128238  0.53579037     0.13500
C3239       C  0.46056401  0.90154575  0.00611477    -0.24200
H3240       H  0.49360175  0.90036965  0.54534059     0.14800
H3241       H  0.41205208  0.90105079  0.58720691     0.14800
C3242       C  0.44727397  0.90469547  0.62907008    -0.24200
H3243       H  0.48043369  0.90243129  0.00082750     0.05000
H3244       H  0.46200154  0.92083353  0.99764006     0.08200
H3245       H  0.44368752  0.88340527  0.99458353     0.08200
H3246       H  0.46574873  0.92384440  0.63740959     0.08200
H3247       H  0.44515471  0.88644655  0.64086044     0.08200
H3248       H  0.42857212  0.90612292  0.63419167     0.05000
C3249       C  0.43703218  0.82786208  0.95714368    -0.20800
C3250       C  0.44023922  0.83100428  0.92684988    -0.07400
C3251       C  0.41790370  0.82899611  0.91012511     0.13500
C3252       C  0.39626104  0.83025819  0.92437889    -0.20900
C3253       C  0.39518542  0.83112416  0.95485048    -0.07400
C3254       C  0.41419132  0.82685237  0.97131253     0.13500
C3255       C  0.41061929  0.82183799  0.50299113    -0.24200
H3256       H  0.45343760  0.82798403  0.96998343     0.14800
H3257       H  0.38098060  0.83221974  0.91165072     0.14800
C3258       C  0.41728805  0.82699078  0.87737134    -0.24200
H3259       H  0.42693655  0.81815357  0.51203694     0.05000
H3260       H  0.39004438  0.80342618  0.50825233     0.08200
H3261       H  0.41259548  0.84039790  0.51399134     0.08200
H3262       H  0.41743374  0.80795268  0.87080607     0.08200
H3263       H  0.43546673  0.84530707  0.86756204     0.08200
H3264       H  0.39825913  0.82571024  0.86814805     0.05000
C3265       C  0.26281263  0.77013421  0.73239846    -0.20800
C3266       C  0.26120409  0.79325694  0.74141774    -0.07400
C3267       C  0.23454795  0.79063352  0.74359550     0.13500
C3268       C  0.21063355  0.76505224  0.73693281    -0.20900
C3269       C  0.21231258  0.74190716  0.72791397    -0.07400
C3270       C  0.23906083  0.74470759  0.72553633     0.13500
C3271       C  0.24340873  0.72148483  0.71533401    -0.24200
H3272       H  0.28303582  0.77196655  0.73034650     0.14800
H3273       H  0.19037606  0.76316343  0.73889591     0.14800
C3274       C  0.23070701  0.81428961  0.75320387    -0.24200
H3275       H  0.26582531  0.72813537  0.71374635     0.05000
H3276       H  0.23426358  0.71445237  0.69334469     0.08200
H3277       H  0.23388066  0.70392573  0.73098421     0.08200
H3278       H  0.24052172  0.83157410  0.73725521     0.08200
H3279       H  0.24003110  0.82164802  0.77507028     0.08200
H3280       H  0.20836199  0.80794727  0.75467685     0.05000
C3281       C  0.40259469  0.98304608  0.77425083    -0.20800
C3282       C  0.38196767  0.97237545  0.75276888    -0.07400
C3283       C  0.37477008  0.99023048  0.73849007     0.13500
C3284       C  0.38981559  0.01885498  0.74486073    -0.20900
C3285       C  0.41187733  0.02979991  0.76498797    -0.07400
C3286       C  0.41754056  0.01140810  0.78070138     0.13500
C3287       C  0.43897968  0.02124508  0.80466570    -0.24200
H3288       H  0.40745196  0.96905777  0.78567801     0.14800
H3289       H  0.38512964  0.03283199  0.73323150     0.14800
C3290       C  0.35232798  0.97945344  0.71561991    -0.24200
H3291       H  0.43852549  0.00359431  0.81630006     0.05000
H3292       H  0.43471353  0.03332878  0.82082458     0.08200
H3293       H  0.46024683  0.03422125  0.79565405     0.08200
H3294       H  0.33203320  0.96411164  0.72542427     0.08200
H3295       H  0.35747997  0.96935341  0.69785625     0.08200
H3296       H  0.35006568  0.99642217  0.70596759     0.05000
C3297       C  0.42959153  0.90030311  0.82952500    -0.20800
C3298       C  0.43195014  0.89929755  0.79921798    -0.07400
C3299       C  0.45686019  0.90260572  0.78722023     0.13500
C3300       C  0.47667276  0.90249571  0.80588689    -0.20900
C3301       C  0.47278176  0.90027791  0.83615720    -0.07400
C3302       C  0.45006815  0.90157533  0.84822985     0.13500
C3303       C  0.44653670  0.90338870  0.88057271    -0.24200
H3304       H  0.41105388  0.89905562  0.83864838     0.14800
H3305       H  0.49474931  0.90285265  0.79669491     0.14800
C3306       C  0.46228990  0.90486426  0.75488954    -0.24200
H3307       H  0.42735660  0.90392141  0.88573834     0.05000
H3308       H  0.46455041  0.92275043  0.88921071     0.08200
H3309       H  0.44508390  0.88532763  0.89209897     0.08200
H3310       H  0.46266513  0.92362096  0.74631152     0.08200
H3311       H  0.44594730  0.88618375  0.74348566     0.08200
H3312       H  0.48267900  0.90686176  0.74966527     0.05000
C3313       C  0.30462876  0.85613722  0.86012486    -0.20800
C3314       C  0.32044362  0.87877446  0.84157529    -0.07400
C3315       C  0.33808969  0.90542290  0.85360869     0.13500
C3316       C  0.34099535  0.90829365  0.88391275    -0.20900
C3317       C  0.32631557  0.88535720  0.90237869    -0.07400
C3318       C  0.30711749  0.85912050  0.89044090     0.13500
C3319       C  0.29060575  0.83385153  0.90939940    -0.24200
H3320       H  0.29116131  0.83575400  0.85077330     0.14800
H3321       H  0.35558916  0.92836295  0.89326310     0.14800
C3322       C  0.35529376  0.93051283  0.83466881    -0.24200
H3323       H  0.27741534  0.81488549  0.89630393     0.05000
H3324       H  0.27661655  0.83708875  0.92393660     0.08200
H3325       H  0.30492761  0.83002550  0.92273646     0.08200
H3326       H  0.34138705  0.93466924  0.82102778     0.08200
H3327       H  0.36920860  0.92685119  0.82044959     0.08200
H3328       H  0.36852821  0.94945326  0.84778245     0.05000
C3329       C  0.33900204  0.90851523  0.63343203    -0.20800
C3330       C  0.32557893  0.88536014  0.65184000    -0.07400
C3331       C  0.30768739  0.85879897  0.63985326     0.13500
C3332       C  0.30512058  0.85581911  0.60953904    -0.20900
C3333       C  0.31991649  0.87870752  0.59096625    -0.07400
C3334       C  0.33623907  0.90559462  0.60309420     0.13500
C3335       C  0.35243388  0.93096467  0.58426331    -0.24200
H3336       H  0.35270006  0.92882529  0.64284514     0.14800
H3337       H  0.29258994  0.83525415  0.60020623     0.14800
C3338       C  0.29290242  0.83327702  0.65880562    -0.24200
H3339       H  0.36481958  0.95008631  0.59742122     0.05000
H3340       H  0.33791848  0.93413028  0.57051202     0.08200
H3341       H  0.36706341  0.92825845  0.57021158     0.08200
H3342       H  0.27841043  0.83525363  0.67380415     0.08200
H3343       H  0.30833217  0.83076356  0.67168144     0.08200
H3344       H  0.28051623  0.81410448  0.64572767     0.05000
C3345       C  0.43665128  0.82756463  0.70721426    -0.20800
C3346       C  0.43969104  0.83043811  0.67692118    -0.07400
C3347       C  0.41743161  0.82843166  0.66011164     0.13500
C3348       C  0.39573318  0.82961124  0.67425443    -0.20900
C3349       C  0.39492564  0.83095560  0.70467938    -0.07400
C3350       C  0.41400439  0.82694089  0.72131426     0.13500
C3351       C  0.41195958  0.82407631  0.75398076    -0.24200
H3352       H  0.45315939  0.82797343  0.72003412     0.14800
H3353       H  0.38042217  0.83148472  0.66148075     0.14800
C3354       C  0.41722902  0.82694503  0.62734285    -0.24200
H3355       H  0.42872157  0.82117412  0.76318870     0.05000
H3356       H  0.39167340  0.80563335  0.76000416     0.08200
H3357       H  0.41369741  0.84285634  0.76417287     0.08200
H3358       H  0.41747211  0.80802466  0.62050096     0.08200
H3359       H  0.43558500  0.84543178  0.61800834     0.08200
H3360       H  0.39833818  0.82584406  0.61795713     0.05000
loop_ 
_geom_bond_atom_site_label_1 
_geom_bond_atom_site_label_2 
_geom_bond_distance 
_geom_bond_site_symmetry_2 
_ccdc_geom_bond_type 
Fe1          O17   2.054       .  S
Fe1           O7   2.078       .  S
Fe1          O14   2.085       .  S
Fe1           O6   2.046       .  S
Fe1          O12   1.969       .  S
Fe2           O5   2.064       .  S
Fe2           O9   2.067       .  S
Fe2          O13   2.045       .  S
Fe2          O18   2.072       .  S
Fe2          O12   1.949       .  S
Fe3          O21   2.075       .  S
Fe3           O8   2.065       .  S
Fe3          O15   2.060       .  S
Fe3           O4   2.069       .  S
Fe3          O12   1.957       .  S
O4           C11   1.268       .  A
O5           C19   1.270       .  A
O6           C11   1.265       .  A
O7           C10   1.271       .  A
O8           C20   1.273       .  A
O9           C22   1.272       .  A
C10          O15   1.271       .  A
C10        C1586   1.488       .  S
C11        C1634   1.465       .  S
O13          C16   1.266       .  A
O14          C16   1.268       .  A
C16        C1602   1.483       .  S
O17          C22   1.268       .  A
O18          C20   1.271       .  A
C19          O21   1.268       .  A
C19        C1669   1.485       .  S
C20        C1618   1.480       .  S
C22        C1650   1.472       .  S
Fe23         O39   2.053       .  S
Fe23         O29   2.077       .  S
Fe23         O36   2.081       .  S
Fe23       O1708   2.059       .  S
Fe23         O34   1.957       .  S
Fe24         O27   2.058       .  S
Fe24         O31   2.068       .  S
Fe24         O35   2.044       .  S
Fe24       O1720   2.071       .  S
Fe24         O34   1.944       .  S
Fe25         O30   2.067       .  S
Fe25         O37   2.066       .  S
Fe25         O26   2.080       .  S
Fe25       O1723   2.091   1_554  S
Fe25       O1714   1.950   1_554  S
O26          C33   1.271       .  A
O27          C41   1.268       .  A
O28       Fe1703   2.048   1_554  S
O28          C33   1.267       .  A
O29          C32   1.271       .  A
O30          C42   1.273       .  A
O31          C44   1.272       .  A
C32        O1717   1.271       .  A
C32        C1522   1.491       .  S
C33        C1653   1.469       .  S
O34       Fe1705   1.949       .  S
O35        C1718   1.264       .  A
O36        C1718   1.269       .  A
O37        C1712   1.272   1_554  A
C38        O1715   1.264       .  A
C38        O1716   1.270       .  A
C38        C1541   1.473   1_556  S
O39          C44   1.268       .  A
O40       Fe1704   2.074   1_554  S
O40          C42   1.271       .  A
C41          O43   1.269       .  A
C41        C1573   1.485       .  S
C42        C1557   1.483       .  S
O43       Fe1705   2.081       .  S
C44        C1637   1.471       .  S
Fe45         O61   2.068       .  S
Fe45         O51   2.098       .  S
Fe45         O58   2.086       .  S
Fe45       O1730   2.070   1_554  S
Fe45         O56   1.946       .  S
Fe46         O49   2.054       .  S
Fe46         O53   2.062       .  S
Fe46         O57   2.042       .  S
Fe46       O1742   2.082       .  S
Fe46         O56   1.938       .  S
Fe47         O52   2.046       .  S
Fe47         O48   2.076       .  S
Fe47       O1745   2.087       .  S
Fe47       O1739   2.051       .  S
Fe47       O1736   1.945       .  S
O48          C55   1.269       .  A
O49          C63   1.263       .  A
O50       Fe1725   2.059       .  S
O50          C55   1.267       .  A
O51          C54   1.277       .  A
O52          C64   1.269       .  A
O53          C66   1.271       .  A
C54          O59   1.272       .  A
C54        C1445   1.480       .  S
C55        C1493   1.476       .  S
O56       Fe1727   1.944   1_554  S
O57          C60   1.265       .  A
O58          C60   1.272       .  A
O59       Fe1727   2.048   1_554  S
C60        C1538   1.477       .  S
O61          C66   1.272       .  A
O62       Fe1726   2.080       .  S
O62          C64   1.275       .  A
C63          O65   1.267       .  A
C63        C1477   1.479       .  S
C64        C1461   1.476       .  S
O65       Fe1727   2.079   1_554  S
C66        C1506   1.475       .  S
Fe67         O83   2.055       .  S
Fe67         O73   2.094       .  S
Fe67         O80   2.097       .  S
Fe67         O72   2.053       .  S
Fe67         O78   1.958       .  S
Fe68         O71   2.053       .  S
Fe68         O75   2.075       .  S
Fe68         O79   2.040       .  S
Fe68         O84   2.084       .  S
Fe68         O78   1.940       .  S
Fe69         O87   2.084       .  S
Fe69         O74   2.056       .  S
Fe69         O81   2.048       .  S
Fe69         O70   2.075       .  S
Fe69         O78   1.952       .  S
O70          C77   1.270       .  A
O71          C85   1.268       .  A
O72          C77   1.267       .  A
O73          C76   1.275       .  A
O74          C86   1.271       .  A
O75          C88   1.271       .  A
C76          O81   1.270       .  A
C76        C1397   1.488       .  S
C77        C1509   1.469       .  S
O79          C82   1.264       .  A
O80          C82   1.274       .  A
C82        C1605   1.489       .  S
O83          C88   1.269       .  A
O84          C86   1.272       .  A
C85          O87   1.270       .  A
C85        C1426   1.483       .  S
C86        C1413   1.485       .  S
C88        C1490   1.472       .  S
Fe89        O105   2.057       .  S
Fe89         O95   2.093       .  S
Fe89        O102   2.089       .  S
Fe89         O94   2.068       .  S
Fe89        O100   1.953       .  S
Fe90         O93   2.049       .  S
Fe90         O97   2.078       .  S
Fe90        O101   2.038       .  S
Fe90        O106   2.087       .  S
Fe90        O100   1.937       .  S
Fe91        O109   2.086       .  S
Fe91         O96   2.054       .  S
Fe91        O103   2.055       .  S
Fe91         O92   2.083       .  S
Fe91        O100   1.943       .  S
O92          C99   1.272       .  A
O93         C107   1.265       .  A
O94          C99   1.270       .  A
O95          C98   1.273       .  A
O96         C108   1.271       .  A
O97         C110   1.274       .  A
C98         O103   1.270       .  A
C98        C1330   1.497       .  S
C99        C1378   1.479       .  S
O101        C104   1.266       .  A
O102        C104   1.270       .  A
C104       C1346   1.486       .  S
O105        C110   1.271       .  A
O106        C108   1.275       .  A
C107        O109   1.271       .  A
C107       C1474   1.482       .  S
C108       C1410   1.483       .  S
C110       C1362   1.470       .  S
Fe111       O127   2.075       .  S
Fe111       O117   2.097       .  S
Fe111       O124   2.094       .  S
Fe111       O116   2.065       .  S
Fe111       O122   1.955       .  S
Fe112       O115   2.060       .  S
Fe112       O119   2.071       .  S
Fe112       O123   2.043       .  S
Fe112       O128   2.080       .  S
Fe112       O122   1.943       .  S
Fe113       O131   2.083       .  S
Fe113       O118   2.047       .  S
Fe113       O125   2.042       .  S
Fe113       O114   2.069       .  S
Fe113       O122   1.952       .  S
O114        C121   1.268       .  A
O115        C129   1.268       .  A
O116        C121   1.267       .  A
O117        C120   1.279       .  A
O118        C130   1.268       .  A
O119        C132   1.271       .  A
C120        O125   1.268       .  A
C120       C1298   1.489       .  S
C121       C1365   1.481       .  S
O123        C126   1.265       .  A
O124        C126   1.274       .  A
C126       C1314   1.485       .  S
O127        C132   1.272       .  A
O128        C130   1.274       .  A
C129        O131   1.269       .  A
C129       C1429   1.483       .  S
C130       C1458   1.478       .  S
C132       C1381   1.484       .  S
Fe133       O149   2.054       .  S
Fe133       O139   2.087       .  S
Fe133       O146   2.088       .  S
Fe133       O138   2.048       .  S
Fe133       O144   1.964       .  S
Fe134       O137   2.058       .  S
Fe134       O141   2.064       .  S
Fe134       O145   2.035       .  S
Fe134       O150   2.078       .  S
Fe134       O144   1.952       .  S
Fe135       O153   2.084       .  S
Fe135       O140   2.059       .  S
Fe135       O147   2.060       .  S
Fe135       O136   2.075       .  S
Fe135       O144   1.954       .  S
O136        C143   1.269       .  A
O137        C151   1.268       .  A
O138        C143   1.264       .  A
O139        C142   1.274       .  A
O140        C152   1.272       .  A
O141        C154   1.269       .  A
C142        O147   1.273       .  A
C142       C1250   1.488       .  S
C143       C1282   1.474       .  S
O145        C148   1.264       .  A
O146        C148   1.272       .  A
C148       C1349   1.480       .  S
O149        C154   1.267       .  A
O150        C152   1.271       .  A
C151        O153   1.270       .  A
C151       C1666   1.486       .  S
C152       C1554   1.484       .  S
C154       C1269   1.465       .  S
Fe155       O171   2.064       .  S
Fe155       O161   2.096       .  S
Fe155       O168   2.097       .  S
Fe155       O160   2.060       .  S
Fe155       O166   1.963       .  S
Fe156       O159   2.058       .  S
Fe156       O163   2.069       .  S
Fe156       O167   2.041       .  S
Fe156       O172   2.083       .  S
Fe156       O166   1.949       .  S
Fe157       O175   2.080       .  S
Fe157       O162   2.059       .  S
Fe157       O169   2.058       .  S
Fe157       O158   2.063       .  S
Fe157       O166   1.953       .  S
O158        C165   1.267       .  A
O159        C173   1.267       .  A
O160        C165   1.267       .  A
O161        C164   1.276       .  A
O162        C174   1.273       .  A
O163        C176   1.271       .  A
C164        O169   1.274       .  A
C164       C1234   1.493       .  S
C165       C1266   1.473       .  S
O167        C170   1.267       .  A
O168        C170   1.273       .  A
C170       C1317   1.494       .  S
O171        C176   1.269       .  A
O172        C174   1.273       .  A
C173        O175   1.268       .  A
C173       C1570   1.484       .  S
C174       C1621   1.485       .  S
C176       C1285   1.474       .  S
Fe177       O193   2.070       .  S
Fe177       O183   2.083       .  S
Fe177       O190   2.087       .  S
Fe177       O182   2.060       .  S
Fe177       O188   1.961       .  S
Fe178       O181   2.049       .  S
Fe178       O185   2.063       .  S
Fe178       O189   2.040       .  S
Fe178       O194   2.067       .  S
Fe178       O188   1.948       .  S
Fe179       O197   2.076       .  S
Fe179       O184   2.058       .  S
Fe179       O191   2.051       .  S
Fe179       O180   2.068       .  S
Fe179       O188   1.960       .  S
O180        C187   1.269       .  A
O181        C195   1.266       .  A
O182        C187   1.269       .  A
O183        C186   1.272       .  A
O184        C196   1.269       .  A
O185        C198   1.269       .  A
C186        O191   1.269       .  A
C186       C1138   1.486       .  S
C187       C1202   1.474       .  S
O189        C192   1.265       .  A
O190        C192   1.270       .  A
C192       C1154   1.478       .  S
O193        C198   1.272       .  A
O194        C196   1.269       .  A
C195        O197   1.270       .  A
C195       C1170   1.479       .  S
C196       C1221   1.473       .  S
C198       C1189   1.480       .  S
Fe199       O215   2.067       .  S
Fe199       O205   2.100       .  S
Fe199       O212   2.089       .  S
Fe199       O204   2.065       .  S
Fe199       O210   1.959       .  S
Fe200       O203   2.056       .  S
Fe200       O207   2.063       .  S
Fe200       O211   2.051       .  S
Fe200       O216   2.077       .  S
Fe200       O210   1.955       .  S
Fe201       O219   2.069       .  S
Fe201       O206   2.043       .  S
Fe201       O213   2.048       .  S
Fe201       O202   2.069       .  S
Fe201       O210   1.955       .  S
O202        C209   1.268       .  A
O203        C217   1.266       .  A
O204        C209   1.268       .  A
O205        C208   1.277       .  A
O206        C218   1.268       .  A
O207        C220   1.270       .  A
C208        O213   1.267       .  A
C208       C1074   1.493       .  S
C209       C1186   1.474       .  S
O211        C214   1.267       .  A
O212        C214   1.271       .  A
C214       C1090   1.487       .  S
O215        C220   1.272       .  A
O216        C218   1.273       .  A
C217        O219   1.266       .  A
C217       C1106   1.476       .  S
C218       C1122   1.475       .  S
C220       C2885   1.471       .  S
Fe221       O227   2.092       .  S
Fe221       O234   2.091       .  S
Fe221       O226   2.059       .  S
Fe221      O1917   2.067   1_554  S
Fe221       O232   1.960       .  S
Fe222       O225   2.054   1_554  S
Fe222       O233   2.042       .  S
Fe222       O238   2.075       .  S
Fe222      O1909   2.065   1_554  S
Fe222       O232   1.945       .  S
Fe223       O241   2.081       .  S
Fe223       O228   2.053       .  S
Fe223       O235   2.049       .  S
Fe223       O224   2.068       .  S
Fe223       O232   1.956       .  S
O224        C231   1.268       .  A
O225        C239   1.268   1_556  A
O226        C231   1.266       .  A
O227        C230   1.277       .  A
O228        C240   1.271       .  A
O229      Fe1902   2.073       .  S
O229        C242   1.272       .  A
C230        O235   1.270       .  A
C230       C1442   1.483       .  S
C231       C1058   1.472       .  S
O233        C236   1.266       .  A
O234        C236   1.272       .  A
C236       C1029   1.478       .  S
O237      Fe1901   2.059       .  S
O237        C242   1.270       .  A
O238        C240   1.270       .  A
C239        O241   1.269       .  A
C239       C2789   1.480   1_554  S
C240       C1218   1.483       .  S
C242       C1042   1.474       .  S
Fe243       O259   2.057       .  S
Fe243       O249   2.109       .  S
Fe243       O256   2.095       .  S
Fe243       O248   2.059       .  S
Fe243       O254   1.944       .  S
Fe244       O247   2.056       .  S
Fe244       O251   2.071       .  S
Fe244       O255   2.044       .  S
Fe244       O260   2.085       .  S
Fe244       O254   1.936       .  S
Fe245       O263   2.070       .  S
Fe245       O250   2.045       .  S
Fe245       O257   2.037       .  S
Fe245       O246   2.064       .  S
Fe245       O254   1.950       .  S
O246        C253   1.264       .  A
O247        C261   1.264       .  A
O248        C253   1.266       .  A
O249        C252   1.282       .  A
O250        C262   1.270       .  A
O251        C264   1.272       .  A
C252        O257   1.269       .  A
C252       C1394   1.483       .  S
C253       C1045   1.473       .  S
O255        C258   1.266       .  A
O256        C258   1.275       .  A
C258       C1010   1.486       .  S
O259        C264   1.270       .  A
O260        C262   1.277       .  A
C261        O263   1.265       .  A
C261       C1173   1.472       .  S
C262       C1125   1.476       .  S
C264       C1061   1.473       .  S
Fe265       O281   2.059       .  S
Fe265       O271   2.103       .  S
Fe265       O278   2.101       .  S
Fe265       O270   2.063       .  S
Fe265       O276   1.940       .  S
Fe266       O269   2.042       .  S
Fe266       O273   2.079       .  S
Fe266       O277   2.034       .  S
Fe266       O282   2.094       .  S
Fe266       O276   1.927       .  S
Fe267       O285   2.092       .  S
Fe267       O272   2.045       .  S
Fe267       O279   2.042       .  S
Fe267       O268   2.080       .  S
Fe267       O276   1.938       .  S
O268        C275   1.271       .  A
O269        C283   1.262       .  A
O270        C275   1.268       .  A
O271        C274   1.279       .  A
O272        C284   1.268       .  A
O273        C286   1.272       .  A
C274        O279   1.268       .  A
C274       C1253   1.482       .  S
C275        C946   1.480       .  S
O277        C280   1.264       .  A
O278        C280   1.276       .  A
C280       C1157   1.482       .  S
O281        C286   1.269       .  A
O282        C284   1.277       .  A
C283        O285   1.271       .  A
C283        C997   1.478       .  S
C284        C981   1.481       .  S
C286        C965   1.472       .  S
Fe287       O303   2.055       .  S
Fe287       O293   2.113       .  S
Fe287       O300   2.102       .  S
Fe287       O292   2.059       .  S
Fe287       O298   1.951       .  S
Fe288       O291   2.049       .  S
Fe288       O295   2.087       .  S
Fe288       O299   2.041       .  S
Fe288       O304   2.097       .  S
Fe288       O298   1.943       .  S
Fe289       O307   2.077       .  S
Fe289       O294   2.049       .  S
Fe289       O301   2.042       .  S
Fe289       O290   2.078       .  S
Fe289       O298   1.947       .  S
O290        C297   1.269       .  A
O291        C305   1.264       .  A
O292        C297   1.267       .  A
O293        C296   1.280       .  A
O294        C306   1.269       .  A
O295        C308   1.274       .  A
C296        O301   1.267       .  A
C296       C1237   1.496       .  S
C297       C2642   1.479       .  S
O299        C302   1.265       .  A
O300        C302   1.275       .  A
C302       C1093   1.479       .  S
O303        C308   1.269       .  A
O304        C306   1.277       .  A
C305        O307   1.269       .  A
C305        C933   1.475       .  S
C306        C914   1.486       .  S
C308        C949   1.480       .  S
Fe309       O325   2.065       .  S
Fe309       O315   2.105       .  S
Fe309       O322   2.100       .  S
Fe309       O314   2.070       .  S
Fe309       O320   1.948       .  S
Fe310       O313   2.046       .  S
Fe310       O317   2.078       .  S
Fe310       O321   2.039       .  S
Fe310       O326   2.088       .  S
Fe310       O320   1.940       .  S
Fe311       O329   2.086       .  S
Fe311       O316   2.043       .  S
Fe311       O323   2.042       .  S
Fe311      O1992   2.078   1_554  S
Fe311       O320   1.945       .  S
O312      Fe1991   2.076       .  S
O312        C319   1.268       .  A
O313        C327   1.264       .  A
O314       C1999   1.270   1_554  A
O315        C318   1.278       .  A
O316        C328   1.267       .  A
O317        C330   1.272       .  A
C318        O323   1.266       .  A
C318        C869   1.487       .  S
C319       O1994   1.267       .  A
C319        C882   1.475       .  S
O321        C324   1.264       .  A
O322        C324   1.275       .  A
C324       C1026   1.485       .  S
O325        C330   1.272       .  A
O326        C328   1.275       .  A
C327        O329   1.271       .  A
C327        C994   1.480       .  S
C328       C2597   1.474       .  S
C330        C898   1.481       .  S
Fe331       O347   2.067       .  S
Fe331       O337   2.096       .  S
Fe331       O344   2.094       .  S
Fe331       O336   2.067       .  S
Fe331       O342   1.950       .  S
Fe332       O335   2.048       .  S
Fe332       O339   2.080       .  S
Fe332       O343   2.045       .  S
Fe332       O348   2.086       .  S
Fe332       O342   1.933       .  S
Fe333       O351   2.078       .  S
Fe333       O338   2.049       .  S
Fe333       O345   2.042       .  S
Fe333       O334   2.075       .  S
Fe333       O342   1.946       .  S
O334        C341   1.270       .  A
O335        C349   1.265       .  A
O336        C341   1.270       .  A
O337        C340   1.276       .  A
O338        C350   1.268       .  A
O339        C352   1.273       .  A
C340        O345   1.266       .  A
C340        C850   1.485       .  S
C341        C901   1.481       .  S
O343        C346   1.266       .  A
O344        C346   1.272       .  A
C346       C1013   1.481       .  S
O347        C352   1.273       .  A
O348        C350   1.275       .  A
C349        O351   1.270       .  A
C349        C930   1.474       .  S
C350        C978   1.482       .  S
C352        C885   1.485       .  S
Fe353       O369   2.067       .  S
Fe353       O359   2.101       .  S
Fe353       O366   2.099       .  S
Fe353       O358   2.055       .  S
Fe353       O364   1.944       .  S
Fe354       O357   2.044       .  S
Fe354       O361   2.072       .  S
Fe354       O365   2.031       .  S
Fe354       O370   2.079       .  S
Fe354       O364   1.935       .  S
Fe355       O373   2.094       .  S
Fe355       O360   2.051       .  S
Fe355       O367   2.051       .  S
Fe355       O356   2.085       .  S
Fe355       O364   1.940       .  S
O356        C363   1.272       .  A
O357        C371   1.265       .  A
O358        C363   1.268       .  A
O359        C362   1.276       .  A
O360        C372   1.267       .  A
O361        C374   1.270       .  A
C362        O367   1.270       .  A
C362        C866   1.486       .  S
C363        C834   1.474       .  S
O365        C368   1.263       .  A
O366        C368   1.275       .  A
C368        C770   1.476       .  S
O369        C374   1.272       .  A
O370        C372   1.272       .  A
C371        O373   1.275       .  A
C371        C786   1.480       .  S
C372        C802   1.481       .  S
C374       C2498   1.484   1_554  S
Fe375       O391   2.070       .  S
Fe375       O381   2.082       .  S
Fe375       O388   2.090       .  S
Fe375       O380   2.063       .  S
Fe375       O386   1.953       .  S
Fe376       O379   2.041       .  S
Fe376       O383   2.063       .  S
Fe376       O387   2.029       .  S
Fe376       O392   2.079       .  S
Fe376       O386   1.939       .  S
Fe377       O395   2.087       .  S
Fe377       O382   2.058       .  S
Fe377       O389   2.053       .  S
Fe377       O378   2.073       .  S
Fe377       O386   1.946       .  S
O378        C385   1.270       .  A
O379        C393   1.264       .  A
O380        C385   1.270       .  A
O381        C384   1.272       .  A
O382        C394   1.270       .  A
O383        C396   1.268       .  A
C384        O389   1.271       .  A
C384        C853   1.487       .  S
C385        C821   1.477       .  S
O387        C390   1.263       .  A
O388        C390   1.272       .  A
C390        C725   1.476       .  S
O391        C396   1.272       .  A
O392        C394   1.271       .  A
C393        O395   1.272       .  A
C393        C738   1.477       .  S
C394        C754   1.484       .  S
C396        C837   1.481       .  S
Fe397       O413   2.055       .  S
Fe397       O403   2.095       .  S
Fe397       O410   2.091       .  S
Fe397       O402   2.054       .  S
Fe397       O408   1.948       .  S
Fe398       O401   2.055       .  S
Fe398       O405   2.083       .  S
Fe398       O409   2.054       .  S
Fe398       O414   2.092       .  S
Fe398       O408   1.939       .  S
Fe399       O417   2.074       .  S
Fe399       O404   2.044       .  S
Fe399       O411   2.043       .  S
Fe399       O400   2.073       .  S
Fe399       O408   1.946       .  S
O400        C407   1.268       .  A
O401        C415   1.266       .  A
O402        C407   1.267       .  A
O403        C406   1.276       .  A
O404        C416   1.269       .  A
O405        C418   1.275       .  A
C406        O411   1.266       .  A
C406       C1589   1.488       .  S
C407        C706   1.470       .  S
O409        C412   1.267       .  A
O410        C412   1.272       .  A
C412        C674   1.481       .  S
O413        C418   1.270       .  A
O414        C416   1.277       .  A
C415        O417   1.267       .  A
C415        C741   1.475       .  S
C416        C805   1.478       .  S
C418        C690   1.474       .  S
Fe419       O425   2.099       .  S
Fe419       O432   2.096       .  S
Fe419       O424   2.063       .  S
Fe419      O2115   2.068       .  S
Fe419       O430   1.949       .  S
Fe420       O431   2.050       .  S
Fe420       O436   2.090       .  S
Fe420      O2103   2.056       .  S
Fe420      O2107   2.087       .  S
Fe420       O430   1.938       .  S
Fe421       O439   2.076       .  S
Fe421       O426   2.048       .  S
Fe421       O433   2.039       .  S
Fe421       O422   2.073       .  S
Fe421       O430   1.945       .  S
O422        C429   1.270       .  A
O423      Fe2100   2.051   1_554  S
O423       C2117   1.266   1_554  A
O424        C429   1.269       .  A
O425        C428   1.277       .  A
O426        C438   1.269       .  A
O427      Fe2100   2.073   1_554  S
O427        C440   1.272       .  A
C428        O433   1.265       .  A
C428       C1525   1.492       .  S
C429        C693   1.481       .  S
O431        C434   1.267       .  A
O432        C434   1.273       .  A
C434        C658   1.485       .  S
O435      Fe2099   2.057   1_554  S
O435        C440   1.271       .  A
O436        C438   1.274       .  A
C437        O439   1.270       .  A
C437       O2103   1.267       .  A
C437       C2469   1.481       .  S
C438        C757   1.482       .  S
C440        C709   1.474       .  S
Fe441       O457   2.055       .  S
Fe441       O447   2.097       .  S
Fe441       O454   2.097       .  S
Fe441       O446   2.056       .  S
Fe441       O452   1.951       .  S
Fe442       O445   2.061       .  S
Fe442       O449   2.084       .  S
Fe442       O453   2.049       .  S
Fe442       O458   2.085       .  S
Fe442       O452   1.937       .  S
Fe443       O461   2.074       .  S
Fe443       O448   2.056       .  S
Fe443       O455   2.044       .  S
Fe443       O444   2.068       .  S
Fe443       O452   1.951       .  S
O444        C451   1.267       .  A
O445        C459   1.268       .  A
O446        C451   1.267       .  A
O447        C450   1.278       .  A
O448        C460   1.272       .  A
O449        C462   1.274       .  A
C450        O455   1.267       .  A
C450       C1141   1.483       .  S
C451        C594   1.472       .  S
O453        C456   1.266       .  A
O454        C456   1.273       .  A
C456        C677   1.477       .  S
O457        C462   1.269       .  A
O458        C460   1.274       .  A
C459        O461   1.268       .  A
C459        C642   1.480       .  S
C460        C629   1.484       .  S
C462        C610   1.476       .  S
Fe463       O479   2.061       .  S
Fe463       O469   2.106       .  S
Fe463       O476   2.102       .  S
Fe463      O2148   2.062       .  S
Fe463       O474   1.951       .  S
Fe464       O467   2.053       .  S
Fe464       O471   2.063       .  S
Fe464       O475   2.038       .  S
Fe464       O480   2.075       .  S
Fe464       O474   1.933       .  S
Fe465       O483   2.090       .  S
Fe465       O477   2.055       .  S
Fe465      O2150   2.057       .  S
Fe465      O2146   2.074       .  S
Fe465       O474   1.946       .  S
O466      Fe2145   2.073   1_554  S
O466        C473   1.268       .  A
O467        C481   1.266       .  A
O468      Fe2143   2.057       .  S
O468        C473   1.264   1_556  A
O469        C472   1.278       .  A
O470      Fe2145   2.055       .  S
O470       C2162   1.272       .  A
O471        C484   1.270       .  A
C472        O477   1.273       .  A
C472       C1077   1.492       .  S
C473        C613   1.480       .  S
O475        C478   1.263       .  A
O476        C478   1.275       .  A
C478        C661   1.488       .  S
O479        C484   1.270       .  A
O480        C482   1.272       .  A
C481        O483   1.269       .  A
C481        C578   1.486       .  S
C482       O2150   1.273       .  A
C482       C2245   1.482       .  S
C484        C597   1.468       .  S
Fe485       O501   2.058       .  S
Fe485       O491   2.096       .  S
Fe485       O498   2.088       .  S
Fe485       O490   2.061       .  S
Fe485       O496   1.955       .  S
Fe486       O489   2.060       .  S
Fe486       O493   2.069       .  S
Fe486       O497   2.052       .  S
Fe486       O502   2.076       .  S
Fe486       O496   1.943       .  S
Fe487       O505   2.078       .  S
Fe487       O492   2.051       .  S
Fe487       O499   2.051       .  S
Fe487       O488   2.075       .  S
Fe487       O496   1.949       .  S
O488        C495   1.270       .  A
O489        C503   1.269       .  A
O490        C495   1.268       .  A
O491        C494   1.276       .  A
O492        C504   1.270       .  A
O493        C506   1.273       .  A
C494        O499   1.267       .  A
C494       C1333   1.497       .  S
C495       C2210   1.472   1_554  S
O497        C500   1.268       .  A
O498        C500   1.270       .  A
C500        C773   1.485       .  S
O501        C506   1.270       .  A
O502        C504   1.271       .  A
C503        O505   1.269       .  A
C503        C645   1.480       .  S
C504        C562   1.476       .  S
C506        C546   1.479       .  S
Fe507       O523   2.051       .  S
Fe507       O513   2.078       .  S
Fe507       O520   2.075       .  S
Fe507       O512   2.052       .  S
Fe507       O518   1.963       .  S
Fe508       O511   2.062       .  S
Fe508       O515   2.070       .  S
Fe508       O519   2.049       .  S
Fe508       O524   2.081       .  S
Fe508       O518   1.944       .  S
Fe509       O527   2.080       .  S
Fe509       O514   2.058       .  S
Fe509       O521   2.053       .  S
Fe509       O510   2.080       .  S
Fe509       O518   1.952       .  S
O510        C517   1.271       .  A
O511        C525   1.269       .  A
O512        C517   1.266       .  A
O513        C516   1.271       .  A
O514        C526   1.273       .  A
O515        C528   1.273       .  A
C516        O521   1.269       .  A
C516       C1301   1.484       .  S
C517        C549   1.469       .  S
O519        C522   1.268       .  A
O520        C522   1.267       .  A
C522        C722   1.484       .  S
O523        C528   1.268       .  A
O524        C526   1.272       .  A
C525        O527   1.269       .  A
C525        C581   1.485       .  S
C526        C626   1.483       .  S
C528        C533   1.471       .  S
C529        C530   1.402       .  A
C529        C534   1.402       .  A
C529        H536   1.084       .  S
C530       C2175   1.465       .  S
C530        C531   1.412       .  A
C531        C532   1.398       .  A
C531       C2218   1.509       .  S
C532        C533   1.403       .  A
C532        H537   1.085       .  S
C533        C534   1.415       .  A
C534        C535   1.509       .  S
C535        H539   1.111       .  S
C535        H540   1.110       .  S
C535        H541   1.111       .  S
C538       C2211   1.506   1_554  S
C538        H542   1.103       .  S
C538        H543   1.111       .  S
C538       H2224   1.111   1_554  S
H544       C2218   1.111       .  S
C545        C546   1.405       .  A
C545        C550   1.399       .  A
C545        H552   1.084       .  S
C546        C547   1.417       .  A
C547        C548   1.405       .  A
C547        C554   1.508       .  S
C548        C549   1.402       .  A
C548        H553   1.084       .  S
C549        C550   1.411       .  A
C550        C551   1.508       .  S
C551        H555   1.111       .  S
C551        H556   1.106       .  S
C551        H557   1.111       .  S
C554        H558   1.110       .  S
C554        H559   1.111       .  S
C554        H560   1.111       .  S
C561        C562   1.402       .  A
C561       C2246   1.401   1_554  A
C561       H2248   1.085       .  S
C562        C563   1.416       .  A
C563        C564   1.400       .  A
C563        C570   1.508       .  S
C564        C565   1.404       .  A
C564        H569   1.084       .  S
C565       C2162   1.481   1_554  S
C565       C2246   1.419   1_554  A
C566       C2241   1.401       .  A
C566       C2245   1.420       .  A
C566        C567   1.510       .  S
C567        H571   1.111       .  S
C567        H572   1.110       .  S
C567        H573   1.107       .  S
H568       C2241   1.085       .  S
C570        H574   1.110       .  S
C570        H575   1.106       .  S
C570        H576   1.111       .  S
C577        C578   1.404       .  A
C577        C582   1.404       .  A
C577        H584   1.085       .  S
C578        C579   1.418       .  A
C579        C580   1.407       .  A
C579        C586   1.508       .  S
C580        C581   1.404       .  A
C580        H585   1.085       .  S
C581        C582   1.418       .  A
C582        C583   1.509       .  S
C583        H587   1.111       .  S
C583        H588   1.110       .  S
C583        H589   1.106       .  S
C586        H590   1.110       .  S
C586        H591   1.107       .  S
C586        H592   1.111       .  S
C593        C594   1.402       .  A
C593        C598   1.399       .  A
C593        H600   1.084       .  S
C594        C595   1.415       .  A
C595        C596   1.403       .  A
C595        C602   1.509       .  S
C596        C597   1.402       .  A
C596        H601   1.085       .  S
C597        C598   1.412       .  A
C598        C599   1.508       .  S
C599        H603   1.111       .  S
C599        H604   1.109       .  S
C599        H605   1.110       .  S
C602        H606   1.109       .  S
C602        H607   1.110       .  S
C602        H608   1.111       .  S
C609        C610   1.403       .  A
C609        C614   1.406       .  A
C609        H616   1.085       .  S
C610        C611   1.413       .  A
C611        C612   1.401       .  A
C611        C618   1.507       .  S
C612        C613   1.403       .  A
C612        H617   1.085       .  S
C613        C614   1.418       .  A
C614        C615   1.509       .  S
C615        H619   1.111       .  S
C615        H620   1.110       .  S
C615        H621   1.110       .  S
C618        H622   1.110       .  S
C618        H623   1.109       .  S
C618        H624   1.111       .  S
C625        C626   1.402       .  A
C625        C630   1.401       .  A
C625        H632   1.085       .  S
C626        C627   1.419       .  A
C627        C628   1.405       .  A
C627        C634   1.510       .  S
C628        C629   1.405       .  A
C628        H633   1.085       .  S
C629        C630   1.418       .  A
C630        C631   1.508       .  S
C631        H635   1.110       .  S
C631        H636   1.111       .  S
C631        H637   1.105       .  S
C634        H638   1.110       .  S
C634        H639   1.107       .  S
C634        H640   1.111       .  S
C641        C642   1.406       .  A
C641        C646   1.402       .  A
C641        H648   1.085       .  S
C642        C643   1.412       .  A
C643        C644   1.405       .  A
C643        C650   1.508       .  S
C644        C645   1.406       .  A
C644        H649   1.084       .  S
C645        C646   1.412       .  A
C646        C647   1.507       .  S
C647        H651   1.110       .  S
C647        H652   1.110       .  S
C647        H653   1.109       .  S
C650        H654   1.108       .  S
C650        H655   1.111       .  S
C650        H656   1.111       .  S
C657        C658   1.402       .  A
C657        C662   1.401   1_455  A
C657        H664   1.084       .  S
C658        C659   1.415       .  A
C659        C660   1.411   1_455  A
C659        C666   1.505       .  S
C660        C661   1.407       .  A
C660        H665   1.083       .  S
C661        C662   1.420       .  A
C662        C663   1.511       .  S
C663        H667   1.111   1_655  S
C663        H668   1.110       .  S
C663        H669   1.109       .  S
C666        H670   1.110       .  S
C666        H671   1.109       .  S
C666        H672   1.111       .  S
C673        C674   1.406       .  A
C673        C678   1.410   1_455  A
C673        H680   1.086       .  S
C674        C675   1.414       .  A
C675        C676   1.402   1_455  A
C675        C682   1.508       .  S
C676        C677   1.401       .  A
C676        H681   1.085       .  S
C677        C678   1.413       .  A
C678        C679   1.506       .  S
C679        H683   1.111   1_655  S
C679        H684   1.110       .  S
C679        H685   1.111       .  S
C682        H686   1.111       .  S
C682        H687   1.109       .  S
C682        H688   1.111       .  S
C689        C690   1.401       .  A
C689        C694   1.404       .  A
C689        H696   1.085       .  S
C690        C691   1.414       .  A
C691        C692   1.403       .  A
C691        C698   1.509       .  S
C692        C693   1.405       .  A
C692        H697   1.084       .  S
C693        C694   1.418       .  A
C694        C695   1.508       .  S
C695        H699   1.111       .  S
C695        H700   1.110       .  S
C695        H701   1.110       .  S
C698        H702   1.110       .  S
C698        H703   1.111       .  S
C698        H704   1.111       .  S
C705        C706   1.402       .  A
C705        C710   1.400       .  A
C705        H712   1.085       .  S
C706        C707   1.413       .  A
C707        C708   1.402       .  A
C707        C714   1.508       .  S
C708        C709   1.404       .  A
C708        H713   1.085       .  S
C709        C710   1.415       .  A
C710        C711   1.508       .  S
C711        H715   1.111       .  S
C711        H716   1.109       .  S
C711        H717   1.110       .  S
C714        H718   1.109       .  S
C714        H719   1.110       .  S
C714        H720   1.111       .  S
C721        C722   1.403       .  A
C721        C726   1.395   1_655  A
C721        H728   1.085       .  S
C722        C723   1.420       .  A
C723        C724   1.408   1_655  A
C723        C730   1.507       .  S
C724        C725   1.404       .  A
C724        H729   1.086       .  S
C725        C726   1.415       .  A
C726        C727   1.512       .  S
C727        H731   1.111       .  S
C727        H732   1.109       .  S
C727        H733   1.111       .  S
C730        H734   1.106       .  S
C730        H735   1.110       .  S
C730        H736   1.111       .  S
C737        C738   1.405       .  A
C737        C742   1.403       .  A
C737        H744   1.084       .  S
C738        C739   1.415       .  A
C739        C740   1.403       .  A
C739        C746   1.510       .  S
C740        C741   1.405       .  A
C740        H745   1.085       .  S
C741        C742   1.412       .  A
C742        C743   1.508       .  S
C743        H747   1.111       .  S
C743        H748   1.109       .  S
C743        H749   1.110       .  S
C746        H750   1.108       .  S
C746        H751   1.110       .  S
C746        H752   1.111       .  S
C753        C754   1.404       .  A
C753        C758   1.403       .  A
C753        H760   1.083       .  S
C754        C755   1.418       .  A
C755        C756   1.404       .  A
C755        C762   1.508       .  S
C756        C757   1.404       .  A
C756        H761   1.084       .  S
C757        C758   1.416       .  A
C758        C759   1.508       .  S
C759        H763   1.111       .  S
C759        H764   1.110       .  S
C759        H765   1.108       .  S
C762        H766   1.110       .  S
C762        H767   1.108       .  S
C762        H768   1.111       .  S
C769        C770   1.401       .  A
C769        C774   1.406   1_455  A
C769        H776   1.085       .  S
C770        C771   1.415       .  A
C771        C772   1.399   1_455  A
C771        C778   1.511       .  S
C772        C773   1.405       .  A
C772        H777   1.085       .  S
C773        C774   1.422       .  A
C774        C775   1.506       .  S
C775        H779   1.110       .  S
C775        H780   1.111       .  S
C775        H781   1.102       .  S
C778        H782   1.109       .  S
C778        H783   1.109       .  S
C778        H784   1.111       .  S
C785        C786   1.406       .  A
C785        C790   1.401       .  A
C785        H792   1.085       .  S
C786        C787   1.416       .  A
C787       C2468   1.405   1_554  A
C787       C2474   1.509   1_554  S
C788       C2467   1.403       .  A
C788       C2469   1.407       .  A
C788        H793   1.084       .  S
C789       C2117   1.478   1_554  S
C789        C790   1.412       .  A
C789       C2468   1.406   1_554  A
C790        C791   1.507       .  S
C791        H795   1.110       .  S
C791        H796   1.110       .  S
C791        H797   1.109       .  S
C794       C2467   1.508       .  S
C794        H799   1.111       .  S
C794        H800   1.108       .  S
C794       H2478   1.110       .  S
H798       C2474   1.110       .  S
C801        C802   1.407       .  A
C801        C806   1.403       .  A
C801        H808   1.084       .  S
C802        C803   1.416       .  A
C803        C804   1.402       .  A
C803        C810   1.510       .  S
C804        C805   1.405       .  A
C804        H809   1.084       .  S
C805        C806   1.415       .  A
C806        C807   1.511       .  S
C807        H811   1.111       .  S
C807        H812   1.109       .  S
C807        H813   1.110       .  S
C810        H814   1.109       .  S
C810        H815   1.110       .  S
C810        H816   1.111       .  S
C817        C818   1.403       .  A
C817        C822   1.404       .  A
C817        H824   1.084       .  S
C818       C2054   1.475       .  S
C818        C819   1.412       .  A
C819        C820   1.403       .  A
C819        C826   1.507       .  S
C820        C821   1.404       .  A
C820        H825   1.084       .  S
C821        C822   1.416       .  A
C822        C823   1.509       .  S
C823        H827   1.111       .  S
C823        H828   1.108       .  S
C823        H829   1.110       .  S
C826        H830   1.109       .  S
C826        H832   1.111       .  S
C826       H2511   1.111       .  S
H831       C2506   1.110       .  S
C833        C834   1.401       .  A
C833        C838   1.401       .  A
C833        H840   1.083       .  S
C834        C835   1.411       .  A
C835        C836   1.405       .  A
C835        C842   1.505       .  S
C836        C837   1.406       .  A
C836        H841   1.084       .  S
C837        C838   1.419       .  A
C838        C839   1.509       .  S
C839        H843   1.111       .  S
C839        H844   1.109       .  S
C839        H845   1.110       .  S
C842        H846   1.109       .  S
C842        H847   1.109       .  S
C842        H848   1.111       .  S
C849        C850   1.405       .  A
C849        C854   1.405       .  A
C849        H856   1.084       .  S
C850        C851   1.418       .  A
C851        C852   1.401       .  A
C851        C858   1.510       .  S
C852        C853   1.404       .  A
C852        H857   1.085       .  S
C853        C854   1.419       .  A
C854        C855   1.509       .  S
C855        H859   1.111       .  S
C855        H860   1.110       .  S
C855        H861   1.110       .  S
C858        H862   1.109       .  S
C858        H863   1.111       .  S
C858        H864   1.111       .  S
C865        C866   1.402       .  A
C865        C870   1.403       .  A
C865        H872   1.085       .  S
C866        C867   1.417       .  A
C867        C868   1.407       .  A
C867        C874   1.506       .  S
C868        C869   1.404       .  A
C868        H873   1.083       .  S
C869        C870   1.419       .  A
C870        C871   1.509       .  S
C871        H875   1.111       .  S
C871        H876   1.111       .  S
C871        H877   1.109       .  S
C874        H878   1.109       .  S
C874        H879   1.109       .  S
C874       H2560   1.111       .  S
H880       C2554   1.111       .  S
C881        C882   1.401       .  A
C881        C886   1.403       .  A
C881        H888   1.083       .  S
C882        C883   1.412       .  A
C883        C884   1.406       .  A
C883        C890   1.508       .  S
C884        C885   1.407       .  A
C884        H889   1.083       .  S
C885        C886   1.418       .  A
C886        C887   1.508       .  S
C887        H891   1.111       .  S
C887        H892   1.109       .  S
C887        H893   1.109       .  S
C890        H894   1.109       .  S
C890        H895   1.111       .  S
C890        H896   1.111       .  S
C897        C898   1.404       .  A
C897        C902   1.406       .  A
C897        H904   1.084       .  S
C898        C899   1.415       .  A
C899        C900   1.404       .  A
C899        C906   1.508       .  S
C900        C901   1.403       .  A
C900        H905   1.084       .  S
C901        C902   1.417       .  A
C902        C903   1.509       .  S
C903        H907   1.111       .  S
C903        H908   1.110       .  S
C903        H909   1.110       .  S
C906        H910   1.111       .  S
C906        H911   1.111       .  S
C906        H912   1.108       .  S
C913        C914   1.405       .  A
C913        C918   1.405       .  A
C913        H920   1.085       .  S
C914        C915   1.419       .  A
C915       C2596   1.404       .  A
C915       C2602   1.510       .  S
C916       C2595   1.401   1_554  A
C916       C2597   1.402       .  A
C916        H921   1.085       .  S
C917       C2008   1.483       .  S
C917        C918   1.418       .  A
C917       C2596   1.404       .  A
C918        C919   1.510       .  S
C919        H923   1.108       .  S
C919        H924   1.111       .  S
C919        H925   1.110       .  S
C922       C2595   1.511   1_554  S
C922        H926   1.109       .  S
C922        H927   1.110       .  S
C922        H928   1.111       .  S
C929        C930   1.406       .  A
C929        C934   1.402       .  A
C929        H936   1.085       .  S
C930        C931   1.413       .  A
C931        C932   1.401       .  A
C931        C938   1.509       .  S
C932        C933   1.405       .  A
C932        H937   1.085       .  S
C933        C934   1.413       .  A
C934        C935   1.509       .  S
C935        H939   1.111       .  S
C935        H940   1.108       .  S
C935        H941   1.110       .  S
C938        H942   1.109       .  S
C938        H943   1.110       .  S
C938        H944   1.111       .  S
C945        C946   1.403       .  A
C945        C950   1.402       .  A
C945        H952   1.084       .  S
C946        C947   1.416       .  A
C947        C948   1.407       .  A
C947        C954   1.508       .  S
C948        C949   1.404       .  A
C948        H953   1.084       .  S
C949        C950   1.415       .  A
C950        C951   1.509       .  S
C951        H955   1.111       .  S
C951        H956   1.110       .  S
C951        H957   1.111       .  S
C954        H958   1.110       .  S
C954        H959   1.110       .  S
C954        H960   1.111       .  S
C961        C962   1.406       .  A
C961        C966   1.402       .  A
C961        H968   1.084   1_554  S
C962       C1977   1.482   1_554  S
C962        C963   1.418       .  A
C963        C964   1.404       .  A
C963        C970   1.508       .  S
C964        C965   1.402       .  A
C964        H969   1.084       .  S
C965        C966   1.410       .  A
C966        C967   1.507       .  S
C967        H971   1.111       .  S
C967        H972   1.109       .  S
C967        H973   1.110       .  S
C970        H974   1.109       .  S
C970        H975   1.110       .  S
C970        H976   1.111       .  S
C977        C978   1.406       .  A
C977        C982   1.402       .  A
C977        H984   1.084       .  S
C978        C979   1.416       .  A
C979        C980   1.402       .  A
C979        C986   1.509       .  S
C980        C981   1.405       .  A
C980        H985   1.085       .  S
C981        C982   1.417       .  A
C982        C983   1.510       .  S
C983        H987   1.111       .  S
C983        H988   1.109       .  S
C983        H989   1.110       .  S
C986        H990   1.109       .  S
C986        H991   1.109       .  S
C986        H992   1.111       .  S
C993        C994   1.405       .  A
C993        C998   1.403       .  A
C993       H1000   1.084       .  S
C994        C995   1.416       .  A
C995        C996   1.404       .  A
C995       C1002   1.509       .  S
C996        C997   1.405       .  A
C996       H1001   1.084       .  S
C997        C998   1.414       .  A
C998        C999   1.509       .  S
C999       H1003   1.111       .  S
C999       H1004   1.108       .  S
C999       H1005   1.110       .  S
C1002      H1006   1.107       .  S
C1002      H1007   1.110       .  S
C1002      H1008   1.111       .  S
C1009      C1010   1.406       .  A
C1009      C1014   1.410       .  A
C1009      H1016   1.084       .  S
C1010      C1011   1.418       .  A
C1011      C1012   1.400       .  A
C1011      C1018   1.510       .  S
C1012      C1013   1.401       .  A
C1012      H1017   1.084       .  S
C1013      C1014   1.414       .  A
C1014      C1015   1.505       .  S
C1015      H1019   1.111       .  S
C1015      H1020   1.110       .  S
C1015      H1021   1.109       .  S
C1018      H1022   1.111       .  S
C1018      H1023   1.109       .  S
C1018      H1024   1.111       .  S
C1025      C1026   1.407       .  A
C1025      C1030   1.410       .  A
C1025      H1032   1.083       .  S
C1026      C1027   1.419       .  A
C1027      C1028   1.399       .  A
C1027      C1034   1.511       .  S
C1028      C1029   1.401       .  A
C1028      H1033   1.085       .  S
C1029      C1030   1.413       .  A
C1030      C1031   1.505       .  S
C1031      H1035   1.111   1_554  S
C1031      H1036   1.110       .  S
C1031      H1037   1.108   1_554  S
C1034      H1038   1.111       .  S
C1034      H1039   1.109       .  S
C1034      H1040   1.111       .  S
C1041      C1042   1.403       .  A
C1041      C1046   1.403       .  A
C1041      H1048   1.084       .  S
C1042      C1043   1.413       .  A
C1043      C1044   1.401       .  A
C1043      C1050   1.507       .  S
C1044      C1045   1.402       .  A
C1044      H1049   1.085       .  S
C1045      C1046   1.415       .  A
C1046      C1047   1.509       .  S
C1047      H1051   1.111       .  S
C1047      H1052   1.109       .  S
C1047      H1053   1.110       .  S
C1050      H1054   1.109       .  S
C1050      H1055   1.109       .  S
C1050      H1056   1.111       .  S
C1057      C1058   1.402       .  A
C1057      C1062   1.402       .  A
C1057      H1064   1.083       .  S
C1058      C1059   1.414       .  A
C1059      C1060   1.403       .  A
C1059      C1066   1.509       .  S
C1060      C1061   1.403       .  A
C1060      H1065   1.085       .  S
C1061      C1062   1.413       .  A
C1062      C1063   1.508       .  S
C1063      H1067   1.110       .  S
C1063      H1068   1.110       .  S
C1063      H1069   1.109       .  S
C1066      H1070   1.110       .  S
C1066      H1071   1.111       .  S
C1066      H1072   1.111       .  S
C1073      C1074   1.406       .  A
C1073      C1078   1.408       .  A
C1073      H1080   1.084       .  S
C1074      C1075   1.420       .  A
C1075      C1076   1.405       .  A
C1075      C1082   1.510       .  S
C1076      C1077   1.405       .  A
C1076      H1081   1.085       .  S
C1077      C1078   1.418       .  A
C1078      C2759   1.507       .  S
C1079      C2758   1.507       .  S
C1079      H1083   1.111       .  S
C1079      H1084   1.110       .  S
C1079      H1085   1.111       .  S
C1082      H1086   1.111       .  S
C1082      H1087   1.109       .  S
C1082      H1088   1.111       .  S
C1089      C1090   1.404       .  A
C1089      C1094   1.402       .  A
C1089      H1096   1.085       .  S
C1090      C1091   1.417       .  A
C1091      C1092   1.409       .  A
C1091      C1098   1.506       .  S
C1092      C1093   1.403       .  A
C1092      H1097   1.084       .  S
C1093      C1094   1.415       .  A
C1094      C1095   1.510       .  S
C1095      H1099   1.111       .  S
C1095      H1100   1.109       .  S
C1095      H1101   1.109       .  S
C1098      H1102   1.109       .  S
C1098      H1103   1.109       .  S
C1098      H1104   1.111       .  S
C1105      C1106   1.402       .  A
C1105      C2790   1.404       .  A
C1105      H2792   1.085       .  S
C1106      C1107   1.416       .  A
C1107      C1108   1.400       .  A
C1107      C1114   1.507       .  S
C1108      C1109   1.401       .  A
C1108      H1113   1.085       .  S
C1109      C1919   1.479       .  S
C1109      C2790   1.419       .  A
C1110      C2785   1.403   1_554  A
C1110      C2789   1.417   1_554  A
C1110      C1111   1.508       .  S
C1111      H1115   1.111       .  S
C1111      H1116   1.110       .  S
C1111      H1117   1.106       .  S
H1112      C2785   1.085   1_554  S
C1114      H1118   1.110       .  S
C1114      H1119   1.105       .  S
C1114      H1120   1.111       .  S
C1121      C1122   1.406       .  A
C1121      C1126   1.402       .  A
C1121      H1128   1.085       .  S
C1122      C1123   1.414       .  A
C1123      C1124   1.398       .  A
C1123      C1130   1.511       .  S
C1124      C1125   1.404       .  A
C1124      H1129   1.084       .  S
C1125      C1126   1.416       .  A
C1126      C1127   1.511       .  S
C1127      H1131   1.111       .  S
C1127      H1132   1.109       .  S
C1127      H1133   1.110       .  S
C1130      H1134   1.109       .  S
C1130      H1135   1.110       .  S
C1130      H1136   1.111       .  S
C1137      C1138   1.405       .  A
C1137      C1142   1.403       .  A
C1137      H1144   1.085       .  S
C1138      C1139   1.417       .  A
C1139      C1140   1.403       .  A
C1139      C1146   1.508       .  S
C1140      C1141   1.404       .  A
C1140      H1145   1.085       .  S
C1141      C1142   1.418       .  A
C1142      C1143   1.510       .  S
C1143      H1147   1.111       .  S
C1143      H1148   1.109       .  S
C1143      H1149   1.108       .  S
C1146      H1150   1.109       .  S
C1146      H1151   1.109       .  S
C1146      H1152   1.111       .  S
C1153      C1154   1.400       .  A
C1153      C1158   1.398       .  A
C1153      H1160   1.086       .  S
C1154      C1155   1.414       .  A
C1155      C1156   1.409       .  A
C1155      C1162   1.506       .  S
C1156      C1157   1.406       .  A
C1156      H1161   1.083       .  S
C1157      C1158   1.419       .  A
C1158      C1159   1.511       .  S
C1159      H1163   1.111       .  S
C1159      H1164   1.110       .  S
C1159      H1165   1.109       .  S
C1162      H1166   1.110       .  S
C1162      H1167   1.110       .  S
C1162      H1168   1.111       .  S
C1169      C1170   1.408       .  A
C1169      C1174   1.404       .  A
C1169      H1176   1.082       .  S
C1170      C1171   1.414       .  A
C1171      C1172   1.402       .  A
C1171      C1178   1.509       .  S
C1172      C1173   1.404       .  A
C1172      H1177   1.083       .  S
C1173      C1174   1.409       .  A
C1174      C1175   1.508       .  S
C1175      H1179   1.110       .  S
C1175      H1180   1.109       .  S
C1175      H1181   1.111       .  S
C1178      H1182   1.108       .  S
C1178      H1183   1.110       .  S
C1178      H1184   1.111       .  S
C1185      C1186   1.402       .  A
C1185      C1190   1.403       .  A
C1185      H1192   1.083       .  S
C1186      C1187   1.412       .  A
C1187      C1188   1.403       .  A
C1187      C1194   1.507       .  S
C1188      C1189   1.403       .  A
C1188      H1193   1.083       .  S
C1189      C1190   1.418       .  A
C1190      C1191   1.509       .  S
C1191      H1195   1.111       .  S
C1191      H1196   1.109       .  S
C1191      H1197   1.110       .  S
C1194      H1198   1.109       .  S
C1194      H1199   1.110       .  S
C1194      H1200   1.111       .  S
C1201      C1202   1.404       .  A
C1201      C1206   1.404       .  A
C1201      H1208   1.085       .  S
C1202      C1203   1.414       .  A
C1203      C1204   1.402       .  A
C1203      C1210   1.510       .  S
C1204      C1205   1.402       .  A
C1204      H1209   1.083       .  S
C1205      C1900   1.473   1_554  S
C1205      C1206   1.414       .  A
C1206      C1207   1.509       .  S
C1207      H1211   1.110   1_554  S
C1207      H2892   1.111   1_554  S
C1207      H2893   1.111       .  S
C1210      H1214   1.110       .  S
C1210      H1215   1.111       .  S
C1210      H1216   1.111       .  S
H1212      C2887   1.106       .  S
H1213      C2887   1.111       .  S
C1217      C1218   1.404       .  A
C1217      C1222   1.399       .  A
C1217      H1224   1.084       .  S
C1218      C1219   1.420       .  A
C1219      C1220   1.404       .  A
C1219      C1226   1.509       .  S
C1220      C1221   1.402       .  A
C1220      H1225   1.084       .  S
C1221      C1222   1.413       .  A
C1222      C1223   1.508       .  S
C1223      H1227   1.111       .  S
C1223      H1228   1.110       .  S
C1223      H1229   1.108       .  S
C1226      H1230   1.110       .  S
C1226      H1231   1.108       .  S
C1226      H1232   1.111       .  S
C1233      C1234   1.402       .  A
C1233      C1238   1.402       .  A
C1233      H1240   1.085       .  S
C1234      C1235   1.420       .  A
C1235      C1236   1.410       .  A
C1235      C1242   1.507       .  S
C1236      C1237   1.407       .  A
C1236      H1241   1.084       .  S
C1237      C1238   1.423       .  A
C1238      C1239   1.510       .  S
C1239      H1243   1.111       .  S
C1239      H1244   1.110       .  S
C1239      H1245   1.110       .  S
C1242      H1246   1.109       .  S
C1242      H1247   1.109       .  S
C1242      H1248   1.111       .  S
C1249      C1250   1.405       .  A
C1249      C1254   1.403       .  A
C1249      H1256   1.085       .  S
C1250      C1251   1.419       .  A
C1251      C1252   1.405       .  A
C1251      C1258   1.507       .  S
C1252      C1253   1.402       .  A
C1252      H1257   1.085       .  S
C1253      C1254   1.417       .  A
C1254      C1255   1.510       .  S
C1255      H1259   1.111       .  S
C1255      H1260   1.109       .  S
C1255      H1261   1.111       .  S
C1258      H1262   1.108       .  S
C1258      H1263   1.109       .  S
C1258      H1264   1.111       .  S
C1265      C1266   1.404       .  A
C1265      C1270   1.403       .  A
C1265      H1272   1.082       .  S
C1266      C1267   1.416       .  A
C1267      C1268   1.400       .  A
C1267      C1274   1.508       .  S
C1268      C1269   1.399       .  A
C1268      H1273   1.081       .  S
C1269      C1270   1.410       .  A
C1270      C1271   1.507       .  S
C1271      H1275   1.111       .  S
C1271      H1276   1.109       .  S
C1271      H1277   1.111       .  S
C1274      H1278   1.108       .  S
C1274      H1279   1.109       .  S
C1274      H1280   1.111       .  S
C1281      C1282   1.403       .  A
C1281      C2966   1.403   1_554  A
C1281      H1288   1.084       .  S
C1282      C1283   1.415       .  A
C1283      C2964   1.400       .  A
C1283      C1290   1.507       .  S
C1284      C1285   1.402       .  A
C1284      C2963   1.401       .  A
C1284      H1289   1.084       .  S
C1285      C1286   1.413       .  A
C1286      C2961   1.405       .  A
C1286      C1287   1.508       .  S
C1287      H1291   1.111       .  S
C1287      H1292   1.110       .  S
C1287      H1293   1.111       .  S
C1290      H1294   1.110       .  S
C1290      H1295   1.108       .  S
C1290      H1296   1.111       .  S
C1297      C1298   1.406       .  A
C1297      C1302   1.403       .  A
C1297      H1304   1.083       .  S
C1298      C1299   1.421       .  A
C1299      C1300   1.403       .  A
C1299      C1306   1.510       .  S
C1300      C1301   1.403       .  A
C1300      H1305   1.084       .  S
C1301      C1302   1.416       .  A
C1302      C1303   1.508       .  S
C1303      H1307   1.111       .  S
C1303      H1308   1.109       .  S
C1303      H1309   1.111       .  S
C1306      H1310   1.110       .  S
C1306      H1311   1.110       .  S
C1306      H1312   1.111       .  S
C1313      C1314   1.406       .  A
C1313      C1318   1.412   1_545  A
C1313      H1320   1.084       .  S
C1314      C1315   1.417       .  A
C1315      C1316   1.399   1_545  A
C1315      C1322   1.512       .  S
C1316      C1317   1.406       .  A
C1316      H1321   1.083       .  S
C1317      C1318   1.419       .  A
C1318      C1319   1.506       .  S
C1319      H1323   1.111       .  S
C1319      H1324   1.110       .  S
C1319      H1325   1.110       .  S
C1322      H1326   1.109       .  S
C1322      H1327   1.107       .  S
C1322      H1328   1.111       .  S
C1329      C1330   1.406       .  A
C1329      C1334   1.404       .  A
C1329      H1336   1.085       .  S
C1330      C1331   1.420       .  A
C1331      C1332   1.407       .  A
C1331      C1338   1.508       .  S
C1332      C1333   1.407       .  A
C1332      H1337   1.084       .  S
C1333      C1334   1.421       .  A
C1334      C1335   1.510       .  S
C1335      H1339   1.111       .  S
C1335      H1340   1.110       .  S
C1335      H1341   1.110       .  S
C1338      H1342   1.110       .  S
C1338      H1343   1.110       .  S
C1338      H1344   1.111       .  S
C1345      C1346   1.403       .  A
C1345      C1350   1.395   1_545  A
C1345      H1352   1.085       .  S
C1346      C1347   1.418       .  A
C1347      C1348   1.410   1_545  A
C1347      C1354   1.506       .  S
C1348      C1349   1.406       .  A
C1348      H1353   1.084       .  S
C1349      C1350   1.417       .  A
C1350      C1351   1.512       .  S
C1351      H1355   1.111       .  S
C1351      H1356   1.109       .  S
C1351      H1357   1.107       .  S
C1354      H1358   1.110       .  S
C1354      H1359   1.110       .  S
C1354      H1360   1.111       .  S
C1361      C1362   1.400       .  A
C1361      C3046   1.402   1_554  A
C1361      H1368   1.085       .  S
C1362      C1363   1.412       .  A
C1363      C3044   1.402   1_554  A
C1363      C1370   1.509       .  S
C1364      C1365   1.405       .  A
C1364      C3043   1.402       .  A
C1364      H1369   1.085       .  S
C1365      C1366   1.417       .  A
C1366      C3041   1.403       .  A
C1366      C1367   1.506       .  S
C1367      H1371   1.111       .  S
C1367      H1372   1.110       .  S
C1367      H1373   1.107       .  S
C1370      H1374   1.110       .  S
C1370      H1375   1.111       .  S
C1370      H1376   1.111       .  S
C1377      C1378   1.403       .  A
C1377      C1382   1.406       .  A
C1377      H1384   1.084       .  S
C1378      C1379   1.413       .  A
C1379      C1380   1.406       .  A
C1379      C1386   1.507       .  S
C1380      C1381   1.404       .  A
C1380      H1385   1.084       .  S
C1381      C1382   1.417       .  A
C1382      C1383   1.509       .  S
C1383      H1387   1.111       .  S
C1383      H1388   1.109       .  S
C1383      H1389   1.111       .  S
C1386      H1390   1.109       .  S
C1386      H1391   1.111       .  S
C1386      H1392   1.111       .  S
C1393      C1394   1.404       .  A
C1393      C1398   1.406       .  A
C1393      H1400   1.084       .  S
C1394      C1395   1.418       .  A
C1395      C1396   1.402       .  A
C1395      C1402   1.511       .  S
C1396      C1397   1.405       .  A
C1396      H1401   1.084       .  S
C1397      C1398   1.417       .  A
C1398      C1399   1.507       .  S
C1399      H1403   1.111       .  S
C1399      H1404   1.110       .  S
C1399      H1405   1.109       .  S
C1402      H1406   1.109       .  S
C1402      H1407   1.109       .  S
C1402      H1408   1.111       .  S
C1409      C1410   1.404       .  A
C1409      C1414   1.404       .  A
C1409      H1416   1.085       .  S
C1410      C1411   1.417       .  A
C1411      C1412   1.403       .  A
C1411      C1418   1.508       .  S
C1412      C1413   1.405       .  A
C1412      H1417   1.085       .  S
C1413      C1414   1.419       .  A
C1414      C1415   1.509       .  S
C1415      H1419   1.111       .  S
C1415      H1420   1.110       .  S
C1415      H1421   1.107       .  S
C1418      H1422   1.108       .  S
C1418      H1423   1.110       .  S
C1418      H1424   1.111       .  S
C1425      C1426   1.403       .  A
C1425      C1430   1.403       .  A
C1425      H1432   1.085       .  S
C1426      C1427   1.418       .  A
C1427      C1428   1.406       .  A
C1427      C1434   1.508       .  S
C1428      C1429   1.403       .  A
C1428      H1433   1.085       .  S
C1429      C1430   1.418       .  A
C1430      C1431   1.507       .  S
C1431      H1435   1.111       .  S
C1431      H1436   1.110       .  S
C1431      H1437   1.105       .  S
C1434      H1438   1.110       .  S
C1434      H1439   1.108       .  S
C1434      H1440   1.111       .  S
C1441      C1442   1.404       .  A
C1441      C1446   1.404       .  A
C1441      H1448   1.085       .  S
C1442      C1443   1.418       .  A
C1443      C1444   1.402       .  A
C1443      C3130   1.509       .  S
C1444      C1445   1.402       .  A
C1444      H3129   1.085       .  S
C1445      C1446   1.415       .  A
C1446      C1447   1.506   1_554  S
C1447      H1451   1.107       .  S
C1447      H1452   1.111       .  S
C1447      H1453   1.109       .  S
H1449      C3124   1.084       .  S
C1450      C3123   1.509       .  S
C1450      H1455   1.109       .  S
C1450      H1456   1.111       .  S
C1450      H3134   1.111       .  S
H1454      C3130   1.111       .  S
C1457      C1458   1.405       .  A
C1457      C1462   1.400       .  A
C1457      H1464   1.084       .  S
C1458      C1459   1.416       .  A
C1459      C1460   1.401       .  A
C1459      C1466   1.510       .  S
C1460      C1461   1.405       .  A
C1460      H1465   1.084       .  S
C1461      C1462   1.415       .  A
C1462      C1463   1.511       .  S
C1463      H1467   1.111       .  S
C1463      H1468   1.109       .  S
C1463      H1469   1.110       .  S
C1466      H1470   1.109       .  S
C1466      H1471   1.110       .  S
C1466      H3152   1.111       .  S
H1472      C3146   1.111       .  S
C1473      C1474   1.407       .  A
C1473      C1478   1.405       .  A
C1473      H1480   1.084       .  S
C1474      C1475   1.415       .  A
C1475      C1476   1.403       .  A
C1475      C1482   1.509       .  S
C1476      C1477   1.405       .  A
C1476      H1481   1.085       .  S
C1477      C1478   1.413       .  A
C1478      C1479   1.508       .  S
C1479      H1483   1.111       .  S
C1479      H1484   1.108       .  S
C1479      H1485   1.110       .  S
C1482      H1486   1.108       .  S
C1482      H1487   1.110       .  S
C1482      H1488   1.111       .  S
C1489      C1490   1.400       .  A
C1489      C1494   1.401       .  A
C1489      H1496   1.083       .  S
C1490      C1491   1.413       .  A
C1491      C1492   1.403       .  A
C1491      C1498   1.508       .  S
C1492      C1493   1.404       .  A
C1492      H1497   1.085       .  S
C1493      C1494   1.415       .  A
C1494      C1495   1.507       .  S
C1495      H1499   1.111       .  S
C1495      H1500   1.108       .  S
C1495      H1501   1.108       .  S
C1498      H1502   1.109       .  S
C1498      H1503   1.111       .  S
C1498      H1504   1.111       .  S
C1505      C1506   1.404       .  A
C1505      C1510   1.401       .  A
C1505      H1512   1.085       .  S
C1506      C1507   1.415       .  A
C1507      C1508   1.404       .  A
C1507      C1514   1.508       .  S
C1508      C1509   1.402       .  A
C1508      H1513   1.084       .  S
C1509      C1510   1.412       .  A
C1510      C1511   1.510       .  S
C1511      H1515   1.111       .  S
C1511      H1516   1.110       .  S
C1511      H1517   1.111       .  S
C1514      H1518   1.110       .  S
C1514      H1519   1.111       .  S
C1514      H1520   1.111       .  S
C1521      C1522   1.404       .  A
C1521      C1526   1.402       .  A
C1521      H1528   1.084       .  S
C1522      C1523   1.421       .  A
C1523      C1524   1.404       .  A
C1523      C1530   1.509       .  S
C1524      C1525   1.405       .  A
C1524      H1529   1.083       .  S
C1525      C1526   1.422       .  A
C1526      C1527   1.510       .  S
C1527      H1531   1.111       .  S
C1527      H1532   1.110       .  S
C1527      H1533   1.110       .  S
C1530      H1534   1.110       .  S
C1530      H1536   1.111       .  S
C1530      H3215   1.110       .  S
H1535      C3210   1.111       .  S
C1537      C1542   1.406   1_545  A
C1537      C3218   1.404       .  A
C1537      H1544   1.085       .  S
C1538      C1539   1.416       .  A
C1538      C3217   1.405   1_554  A
C1539      C1540   1.400   1_545  A
C1539      C1546   1.510       .  S
C1540      C1541   1.401       .  A
C1540      H1545   1.084       .  S
C1541      C3222   1.412   1_554  A
C1542      C3221   1.411       .  A
C1542      C1543   1.506       .  S
C1543      H1547   1.111       .  S
C1543      H1548   1.110       .  S
C1543      H1549   1.111       .  S
C1546      H1550   1.111       .  S
C1546      H1551   1.109       .  S
C1546      H1552   1.111       .  S
C1553      C1554   1.403       .  A
C1553      C1558   1.401       .  A
C1553      H1560   1.084       .  S
C1554      C1555   1.419       .  A
C1555      C1556   1.406       .  A
C1555      C1562   1.509       .  S
C1556      C1557   1.405       .  A
C1556      H1561   1.084       .  S
C1557      C1558   1.417       .  A
C1558      C3239   1.510       .  S
C1559      C3238   1.509       .  S
C1559      H1563   1.111       .  S
C1559      H1564   1.110       .  S
C1559      H1565   1.107       .  S
C1562      H1566   1.110       .  S
C1562      H1567   1.107       .  S
C1562      H1568   1.111       .  S
C1569      C1570   1.403       .  A
C1569      C1574   1.405       .  A
C1569      H1576   1.085       .  S
C1570      C1571   1.418       .  A
C1571      C1572   1.404       .  A
C1571      C1578   1.508       .  S
C1572      C1573   1.403       .  A
C1572      H1577   1.084       .  S
C1573      C1574   1.419       .  A
C1574      C3255   1.509       .  S
C1575      C3254   1.509   1_554  S
C1575      H1579   1.111       .  S
C1575      H1580   1.110       .  S
C1575      H1581   1.107       .  S
C1578      H1582   1.110       .  S
C1578      H1583   1.106       .  S
C1578      H1584   1.111       .  S
C1585      C1586   1.404       .  A
C1585      C1590   1.403       .  A
C1585      H1592   1.083       .  S
C1586      C1587   1.419       .  A
C1587      C1588   1.404       .  A
C1587      C1594   1.509       .  S
C1588      C1589   1.405       .  A
C1588      H1593   1.084       .  S
C1589      C1590   1.419       .  A
C1590      C1591   1.509       .  S
C1591      H1595   1.111       .  S
C1591      H1596   1.111       .  S
C1591      H1597   1.109       .  S
C1594      H1598   1.110       .  S
C1594      H1599   1.110       .  S
C1594      H1600   1.111       .  S
C1601      C1602   1.400       .  A
C1601      C1606   1.396   1_565  A
C1601      H1608   1.085       .  S
C1602      C1603   1.415       .  A
C1603      C1604   1.412   1_565  A
C1603      C1610   1.506       .  S
C1604      C1605   1.409       .  A
C1604      H1609   1.084       .  S
C1605      C1606   1.420       .  A
C1606      C1607   1.511       .  S
C1607      H1611   1.111       .  S
C1607      H1612   1.110       .  S
C1607      H1613   1.109       .  S
C1610      H1614   1.110       .  S
C1610      H1615   1.110       .  S
C1610      H1616   1.111       .  S
C1617      C1618   1.403       .  A
C1617      C1622   1.405       .  A
C1617      H1624   1.084       .  S
C1618      C1619   1.417       .  A
C1619      C1620   1.402       .  A
C1619      C1626   1.510       .  S
C1620      C1621   1.404       .  A
C1620      H1625   1.084       .  S
C1621      C1622   1.419       .  A
C1622      C1623   1.509       .  S
C1623      H1627   1.111       .  S
C1623      H1628   1.110       .  S
C1623      H1629   1.107       .  S
C1626      H1630   1.110       .  S
C1626      H1631   1.107       .  S
C1626      H1632   1.111       .  S
C1633      C1634   1.401       .  A
C1633      C1638   1.402       .  A
C1633      H1640   1.085       .  S
C1634      C1635   1.412       .  A
C1635      C1636   1.398       .  A
C1635      C1642   1.510       .  S
C1636      C1637   1.402       .  A
C1636      H1641   1.085       .  S
C1637      C1638   1.416       .  A
C1638      C1639   1.509       .  S
C1639      H1643   1.111       .  S
C1639      H1644   1.110       .  S
C1639      H1645   1.111       .  S
C1642      H1646   1.110       .  S
C1642      H1647   1.111       .  S
C1642      H1648   1.111       .  S
C1649      C1650   1.402       .  A
C1649      C1654   1.398       .  A
C1649      H1656   1.084       .  S
C1650      C1651   1.415       .  A
C1651      C1652   1.404       .  A
C1651      C1658   1.509       .  S
C1652      C1653   1.403       .  A
C1652      H1657   1.084       .  S
C1653      C1654   1.413       .  A
C1654      C1655   1.509       .  S
C1655      H1659   1.111       .  S
C1655      H1660   1.110       .  S
C1655      H1661   1.111       .  S
C1658      H1662   1.110       .  S
C1658      H1663   1.111       .  S
C1658      H1664   1.111       .  S
C1665      C1666   1.403       .  A
C1665      C1670   1.406       .  A
C1665      H1672   1.085       .  S
C1666      C1667   1.419       .  A
C1667      C1668   1.405       .  A
C1667      C1674   1.508       .  S
C1668      C1669   1.402       .  A
C1668      H1673   1.084       .  S
C1669      C1670   1.419       .  A
C1670      C1671   1.509       .  S
C1671      H1675   1.111       .  S
C1671      H1676   1.110       .  S
C1671      H1677   1.107       .  S
C1674      H1678   1.110       .  S
C1674      H1679   1.105       .  S
C1674      H1680   1.111       .  S
Fe1681     O1697   2.059       .  S
Fe1681     O1687   2.076       .  S
Fe1681     O1694   2.078       .  S
Fe1681     O1686   2.059       .  S
Fe1681     O1692   1.962       .  S
Fe1682     O1685   2.058       .  S
Fe1682     O1689   2.075       .  S
Fe1682     O1693   2.044       .  S
Fe1682     O1698   2.075       .  S
Fe1682     O1692   1.948       .  S
Fe1683     O1701   2.078       .  S
Fe1683     O1688   2.057       .  S
Fe1683     O1695   2.053       .  S
Fe1683     O1684   2.070       .  S
Fe1683     O1692   1.954       .  S
O1684      C1691   1.269       .  A
O1685      C1699   1.269       .  A
O1686      C1691   1.268       .  A
O1687      C1690   1.270       .  A
O1688      C1700   1.271       .  A
O1689      C1702   1.273       .  A
C1690      O1695   1.271       .  A
C1690      C3266   1.491       .  S
C1691      C3314   1.475       .  S
O1693      C1696   1.265       .  A
O1694      C1696   1.268       .  A
C1696      C3282   1.473       .  S
O1697      C1702   1.270       .  A
O1698      C1700   1.271       .  A
C1699      O1701   1.269       .  A
C1699      C3349   1.482       .  S
C1700      C3298   1.480       .  S
C1702      C3330   1.473       .  S
Fe1703     O1719   2.052       .  S
Fe1703     O1709   2.084   1_556  S
Fe1703     O1716   2.088       .  S
Fe1703     O1714   1.958       .  S
Fe1704     O1707   2.057       .  S
Fe1704     O1711   2.079       .  S
Fe1704     O1715   2.043       .  S
Fe1704     O1714   1.944       .  S
Fe1705     O1710   2.057       .  S
Fe1705     O1717   2.056       .  S
Fe1705     O1706   2.075       .  S
O1706      C1713   1.270       .  A
O1707      C1721   1.268       .  A
O1708      C1713   1.268       .  A
O1709      C1712   1.272   1_554  A
O1710      C1722   1.272       .  A
O1711      C1724   1.274       .  A
C1712      C3202   1.484       .  S
C1713      C3333   1.479       .  S
C1718      C3221   1.467       .  S
O1719      C1724   1.269       .  A
O1720      C1722   1.270       .  A
C1721      O1723   1.272       .  A
C1721      C3253   1.488       .  S
C1722      C3237   1.478       .  S
C1724      C3317   1.473       .  S
Fe1725     O1741   2.057       .  S
Fe1725     O1731   2.087       .  S
Fe1725     O1738   2.081       .  S
Fe1725     O1736   1.953       .  S
Fe1726     O1729   2.055       .  S
Fe1726     O1733   2.068       .  S
Fe1726     O1737   2.040       .  S
Fe1726     O1736   1.944       .  S
Fe1727     O1732   2.046       .  S
Fe1727     O1728   2.070       .  S
O1728      C1735   1.266       .  A
O1729      C1743   1.265       .  A
O1730      C1735   1.269       .  A
O1731      C1734   1.274       .  A
O1732      C1744   1.270       .  A
O1733      C1746   1.272       .  A
C1734      O1739   1.272       .  A
C1734      C3125   1.483       .  S
C1735      C3173   1.483       .  S
O1737      C1740   1.264       .  A
O1738      C1740   1.270       .  A
C1740      C3218   1.472       .  S
O1741      C1746   1.270       .  A
O1742      C1744   1.275   1_554  A
C1743      O1745   1.269       .  A
C1743      C3157   1.481       .  S
C1744      C3141   1.474       .  S
C1746      C3186   1.469       .  S
Fe1747     O1763   2.062       .  S
Fe1747     O1753   2.088       .  S
Fe1747     O1760   2.087       .  S
Fe1747     O1752   2.060       .  S
Fe1747     O1758   1.959       .  S
Fe1748     O1751   2.054       .  S
Fe1748     O1755   2.072       .  S
Fe1748     O1759   2.041       .  S
Fe1748     O1764   2.080       .  S
Fe1748     O1758   1.946       .  S
Fe1749     O1767   2.067       .  S
Fe1749     O1754   2.059       .  S
Fe1749     O1761   2.044       .  S
Fe1749     O1750   2.062       .  S
Fe1749     O1758   1.955       .  S
O1750      C1757   1.268       .  A
O1751      C1765   1.268       .  A
O1752      C1757   1.268       .  A
O1753      C1756   1.273       .  A
O1754      C1766   1.271       .  A
O1755      C1768   1.270       .  A
C1756      O1761   1.269       .  A
C1756      C3077   1.485       .  S
C1757      C3189   1.472       .  S
O1759      C1762   1.265       .  A
O1760      C1762   1.272       .  A
C1762      C3285   1.480       .  S
O1763      C1768   1.270       .  A
O1764      C1766   1.272       .  A
C1765      O1767   1.266       .  A
C1765      C3106   1.475       .  S
C1766      C3093   1.485       .  S
C1768      C3170   1.472       .  S
Fe1769     O1785   2.051       .  S
Fe1769     O1775   2.086       .  S
Fe1769     O1782   2.090       .  S
Fe1769     O1774   2.051       .  S
Fe1769     O1780   1.951       .  S
Fe1770     O1773   2.047       .  S
Fe1770     O1777   2.083       .  S
Fe1770     O1781   2.033       .  S
Fe1770     O1786   2.091       .  S
Fe1770     O1780   1.930       .  S
Fe1771     O1789   2.094       .  S
Fe1771     O1776   2.053       .  S
Fe1771     O1783   2.045       .  S
Fe1771     O1772   2.082       .  S
Fe1771     O1780   1.940       .  S
O1772      C1779   1.272       .  A
O1773      C1787   1.265       .  A
O1774      C1779   1.267       .  A
O1775      C1778   1.273       .  A
O1776      C1788   1.271       .  A
O1777      C1790   1.274       .  A
C1778      O1783   1.269       .  A
C1778      C3010   1.480       .  S
C1779      C3058   1.467       .  S
O1781      C1784   1.266       .  A
O1782      C1784   1.271       .  A
C1784      C3026   1.483       .  S
O1785      C1790   1.269       .  A
O1786      C1788   1.275       .  A
C1787      O1789   1.272       .  A
C1787      C3154   1.486       .  S
C1788      C3090   1.484       .  S
C1790      C3042   1.472       .  S
Fe1791     O1807   2.058       .  S
Fe1791     O1797   2.092       .  S
Fe1791     O1804   2.086       .  S
Fe1791     O1796   2.057       .  S
Fe1791     O1802   1.956       .  S
Fe1792     O1795   2.059       .  S
Fe1792     O1799   2.067       .  S
Fe1792     O1803   2.046       .  S
Fe1792     O1808   2.082       .  S
Fe1792     O1802   1.943       .  S
Fe1793     O1811   2.068       .  S
Fe1793     O1798   2.046       .  S
Fe1793     O1805   2.040       .  S
Fe1793     O1794   2.063       .  S
Fe1793     O1802   1.955       .  S
O1794      C1801   1.265       .  A
O1795      C1809   1.267       .  A
O1796      C1801   1.265       .  A
O1797      C1800   1.278       .  A
O1798      C1810   1.269       .  A
O1799      C1812   1.271       .  A
C1800      O1805   1.268       .  A
C1800      C2978   1.483       .  S
C1801      C3045   1.479       .  S
O1803      C1806   1.266       .  A
O1804      C1806   1.271       .  A
C1806      C2994   1.483       .  S
O1807      C1812   1.270       .  A
O1808      C1810   1.275       .  A
C1809      O1811   1.264       .  A
C1809      C3109   1.476       .  S
C1810      C3138   1.477       .  S
C1812      C3061   1.473       .  S
Fe1813     O1829   2.065       .  S
Fe1813     O1819   2.087       .  S
Fe1813     O1826   2.086       .  S
Fe1813     O1818   2.059       .  S
Fe1813     O1824   1.963       .  S
Fe1814     O1817   2.054       .  S
Fe1814     O1821   2.053       .  S
Fe1814     O1825   2.034       .  S
Fe1814     O1830   2.066       .  S
Fe1814     O1824   1.952       .  S
Fe1815     O1833   2.082       .  S
Fe1815     O1820   2.063       .  S
Fe1815     O1827   2.066       .  S
Fe1815     O1816   2.071       .  S
Fe1815     O1824   1.957       .  S
O1816      C1823   1.268       .  A
O1817      C1831   1.267       .  A
O1818      C1823   1.266       .  A
O1819      C1822   1.274       .  A
O1820      C1832   1.273       .  A
O1821      C1834   1.267       .  A
C1822      O1827   1.275       .  A
C1822      C2930   1.499       .  S
C1823      C2962   1.476       .  S
O1825      C1828   1.263       .  A
O1826      C1828   1.272       .  A
C1828      C3029   1.478       .  S
O1829      C1834   1.270       .  A
O1830      C1832   1.269       .  A
C1831      O1833   1.269       .  A
C1831      C3346   1.482       .  S
C1832      C3234   1.480       .  S
C1834      C2949   1.471       .  S
Fe1835     O1851   2.055       .  S
Fe1835     O1841   2.101       .  S
Fe1835     O1848   2.101       .  S
Fe1835     O1840   2.051       .  S
Fe1835     O1846   1.953       .  S
Fe1836     O1839   2.058       .  S
Fe1836     O1843   2.068       .  S
Fe1836     O1847   2.037       .  S
Fe1836     O1852   2.082       .  S
Fe1836     O1846   1.938       .  S
Fe1837     O1855   2.089       .  S
Fe1837     O1842   2.052       .  S
Fe1837     O1849   2.043       .  S
Fe1837     O1838   2.071       .  S
Fe1837     O1846   1.945       .  S
O1838      C1845   1.267       .  A
O1839      C1853   1.266       .  A
O1840      C1845   1.264       .  A
O1841      C1844   1.278       .  A
O1842      C1854   1.272       .  A
O1843      C1856   1.271       .  A
C1844      O1849   1.273       .  A
C1844      C2914   1.496       .  S
C1845      C2946   1.467       .  S
O1847      C1850   1.266       .  A
O1848      C1850   1.275       .  A
C1850      C2997   1.494       .  S
O1851      C1856   1.267       .  A
O1852      C1854   1.273       .  A
C1853      O1855   1.269       .  A
C1853      C3250   1.488       .  S
C1854      C3301   1.482       .  S
C1856      C2965   1.468       .  S
Fe1857     O1873   2.053       .  S
Fe1857     O1863   2.088       .  S
Fe1857     O1870   2.089       .  S
Fe1857     O1862   2.055       .  S
Fe1857     O1868   1.957       .  S
Fe1858     O1861   2.057       .  S
Fe1858     O1865   2.079       .  S
Fe1858     O1869   2.052       .  S
Fe1858     O1874   2.076       .  S
Fe1858     O1868   1.946       .  S
Fe1859     O1877   2.079       .  S
Fe1859     O1864   2.055       .  S
Fe1859     O1871   2.058       .  S
Fe1859     O1860   2.075       .  S
Fe1859     O1868   1.953       .  S
O1860      C1867   1.271       .  A
O1861      C1875   1.268       .  A
O1862      C1867   1.268       .  A
O1863      C1866   1.272       .  A
O1864      C1876   1.270       .  A
O1865      C1878   1.273       .  A
C1866      O1871   1.270       .  A
C1866      C2818   1.490       .  S
C1867      C2882   1.476       .  S
O1869      C1872   1.267       .  A
O1870      C1872   1.270       .  A
C1872      C2834   1.485       .  S
O1873      C1878   1.270       .  A
O1874      C1876   1.271       .  A
C1875      O1877   1.271       .  A
C1875      C2850   1.481       .  S
C1876      C2901   1.476       .  S
C1878      C2869   1.471       .  S
Fe1879     O1895   2.059       .  S
Fe1879     O1885   2.103       .  S
Fe1879     O1892   2.100       .  S
Fe1879     O1884   2.061       .  S
Fe1879     O1890   1.954       .  S
Fe1880     O1883   2.057       .  S
Fe1880     O1887   2.073       .  S
Fe1880     O1891   2.055       .  S
Fe1880     O1896   2.090       .  S
Fe1880     O1890   1.944       .  S
Fe1881     O1899   2.073       .  S
Fe1881     O1886   2.054       .  S
Fe1881     O1893   2.051       .  S
Fe1881     O1882   2.066       .  S
Fe1881     O1890   1.949       .  S
O1882      C1889   1.268       .  A
O1883      C1897   1.267       .  A
O1884      C1889   1.269       .  A
O1885      C1888   1.277       .  A
O1886      C1898   1.270       .  A
O1887      C1900   1.273       .  A
C1888      O1893   1.267       .  A
C1888      C2754   1.494       .  S
C1889      C2866   1.473       .  S
O1891      C1894   1.269       .  A
O1892      C1894   1.274       .  A
C1894      C2770   1.492       .  S
O1895      C1900   1.270       .  A
O1896      C1898   1.276       .  A
C1897      O1899   1.267       .  A
C1897      C2786   1.481       .  S
C1898      C2802   1.483       .  S
Fe1901     O1907   2.098       .  S
Fe1901     O1914   2.102       .  S
Fe1901     O1906   2.057       .  S
Fe1901     O1912   1.955       .  S
Fe1902     O1905   2.058       .  S
Fe1902     O1913   2.050       .  S
Fe1902     O1918   2.078       .  S
Fe1902     O1912   1.941       .  S
Fe1903     O1921   2.072       .  S
Fe1903     O1908   2.050       .  S
Fe1903     O1915   2.041       .  S
Fe1903     O1904   2.071       .  S
Fe1903     O1912   1.949       .  S
O1904      C1911   1.269       .  A
O1905      C1919   1.269       .  A
O1906      C1911   1.267       .  A
O1907      C1910   1.277       .  A
O1908      C1920   1.271       .  A
O1909      C1922   1.269       .  A
C1910      O1915   1.266       .  A
C1910      C3122   1.484       .  S
C1911      C2738   1.479       .  S
O1913      C1916   1.268       .  A
O1914      C1916   1.274       .  A
C1916      C2709   1.488       .  S
O1917      C1922   1.271       .  A
O1918      C1920   1.271       .  A
C1919      O1921   1.267       .  A
C1920      C2898   1.481       .  S
C1922      C2722   1.480       .  S
Fe1923     O1939   2.058       .  S
Fe1923     O1929   2.098       .  S
Fe1923     O1936   2.090       .  S
Fe1923     O1928   2.064       .  S
Fe1923     O1934   1.949       .  S
Fe1924     O1927   2.056       .  S
Fe1924     O1931   2.084       .  S
Fe1924     O1935   2.044       .  S
Fe1924     O1940   2.100       .  S
Fe1924     O1934   1.938       .  S
Fe1925     O1943   2.073       .  S
Fe1925     O1930   2.046       .  S
Fe1925     O1937   2.040       .  S
Fe1925     O1926   2.073       .  S
Fe1925     O1934   1.946       .  S
O1926      C1933   1.268       .  A
O1927      C1941   1.265       .  A
O1928      C1933   1.268       .  A
O1929      C1932   1.277       .  A
O1930      C1942   1.269       .  A
O1931      C1944   1.275       .  A
C1932      O1937   1.267       .  A
C1932      C3074   1.483       .  S
C1933      C2725   1.472       .  S
O1935      C1938   1.266       .  A
O1936      C1938   1.272       .  A
C1938      C2690   1.480       .  S
O1939      C1944   1.271       .  A
O1940      C1942   1.279       .  A
C1941      O1943   1.267       .  A
C1941      C2853   1.474       .  S
C1942      C2805   1.487       .  S
C1944      C2741   1.474       .  S
Fe1945     O1961   2.063       .  S
Fe1945     O1951   2.111       .  S
Fe1945     O1958   2.111       .  S
Fe1945     O1950   2.067       .  S
Fe1945     O1956   1.947       .  S
Fe1946     O1949   2.044       .  S
Fe1946     O1953   2.081       .  S
Fe1946     O1957   2.040       .  S
Fe1946     O1962   2.100       .  S
Fe1946     O1956   1.933       .  S
Fe1947     O1965   2.090       .  S
Fe1947     O1952   2.043       .  S
Fe1947     O1959   2.041       .  S
Fe1947     O1948   2.086       .  S
Fe1947     O1956   1.942       .  S
O1948      C1955   1.272       .  A
O1949      C1963   1.264       .  A
O1950      C1955   1.270       .  A
O1951      C1954   1.280       .  A
O1952      C1964   1.267       .  A
O1953      C1966   1.273       .  A
C1954      O1959   1.266       .  A
C1954      C2933   1.494       .  S
C1955      C2626   1.482       .  S
O1957      C1960   1.265       .  A
O1958      C1960   1.277       .  A
C1960      C2837   1.488       .  S
O1961      C1966   1.271       .  A
O1962      C1964   1.277       .  A
C1963      O1965   1.272       .  A
C1963      C2677   1.479       .  S
C1964      C2661   1.487       .  S
C1966      C2645   1.480       .  S
Fe1967     O1983   2.063       .  S
Fe1967     O1973   2.106       .  S
Fe1967     O1980   2.108       .  S
Fe1967     O1972   2.059       .  S
Fe1967     O1978   1.947       .  S
Fe1968     O1971   2.046       .  S
Fe1968     O1975   2.089       .  S
Fe1968     O1979   2.040       .  S
Fe1968     O1984   2.097       .  S
Fe1968     O1978   1.934       .  S
Fe1969     O1987   2.082       .  S
Fe1969     O1974   2.038       .  S
Fe1969     O1981   2.040       .  S
Fe1969     O1970   2.078       .  S
Fe1969     O1978   1.944       .  S
O1970      C1977   1.269       .  A
O1971      C1985   1.263       .  A
O1972      C1977   1.269       .  A
O1973      C1976   1.279       .  A
O1974      C1986   1.267       .  A
O1975      C1988   1.276       .  A
C1976      O1981   1.266       .  A
C1976      C2917   1.496       .  S
O1979      C1982   1.264       .  A
O1980      C1982   1.275       .  A
C1982      C2773   1.486       .  S
O1983      C1988   1.271       .  A
O1984      C1986   1.278       .  A
C1985      O1987   1.269       .  A
C1985      C2613   1.476       .  S
C1986      C2594   1.483       .  S
C1988      C2629   1.487       .  S
Fe1989     O2005   2.058       .  S
Fe1989     O1995   2.105       .  S
Fe1989     O2002   2.104       .  S
Fe1989     O1994   2.061       .  S
Fe1989     O2000   1.947       .  S
Fe1990     O1993   2.052       .  S
Fe1990     O1997   2.086       .  S
Fe1990     O2001   2.049       .  S
Fe1990     O2006   2.104       .  S
Fe1990     O2000   1.935       .  S
Fe1991     O2009   2.082       .  S
Fe1991     O1996   2.043       .  S
Fe1991     O2003   2.039       .  S
Fe1991     O2000   1.948       .  S
O1992      C1999   1.270       .  A
O1993      C2007   1.264       .  A
O1995      C1998   1.280       .  A
O1996      C2008   1.269       .  A
O1997      C2010   1.276       .  A
C1998      O2003   1.267       .  A
C1998      C2549   1.488       .  S
C1999      C2562   1.482       .  S
O2001      C2004   1.266       .  A
O2002      C2004   1.275       .  A
C2004      C2706   1.494       .  S
O2005      C2010   1.270       .  A
O2006      C2008   1.280       .  A
C2007      O2009   1.268       .  A
C2007      C2674   1.479       .  S
C2010      C2578   1.478       .  S
Fe2011     O2027   2.057       .  S
Fe2011     O2017   2.091       .  S
Fe2011     O2024   2.092       .  S
Fe2011     O2016   2.056       .  S
Fe2011     O2022   1.945       .  S
Fe2012     O2015   2.049       .  S
Fe2012     O2019   2.093       .  S
Fe2012     O2023   2.046       .  S
Fe2012     O2028   2.091       .  S
Fe2012     O2022   1.930       .  S
Fe2013     O2031   2.084       .  S
Fe2013     O2018   2.054       .  S
Fe2013     O2025   2.050       .  S
Fe2013     O2014   2.081       .  S
Fe2013     O2022   1.942       .  S
O2014      C2021   1.272       .  A
O2015      C2029   1.267       .  A
O2016      C2021   1.268       .  A
O2017      C2020   1.275       .  A
O2018      C2030   1.268       .  A
O2019      C2032   1.275       .  A
C2020      O2025   1.267       .  A
C2020      C2530   1.485       .  S
C2021      C2581   1.477       .  S
O2023      C2026   1.267       .  A
O2024      C2026   1.272       .  A
C2026      C2693   1.480       .  S
O2027      C2032   1.271       .  A
O2028      C2030   1.276       .  A
C2029      O2031   1.272       .  A
C2029      C2610   1.476       .  S
C2030      C2658   1.484       .  S
C2032      C2565   1.483       .  S
Fe2033     O2049   2.061       .  S
Fe2033     O2039   2.101       .  S
Fe2033     O2046   2.102       .  S
Fe2033     O2038   2.062       .  S
Fe2033     O2044   1.947       .  S
Fe2034     O2037   2.047       .  S
Fe2034     O2041   2.080       .  S
Fe2034     O2045   2.035       .  S
Fe2034     O2050   2.097       .  S
Fe2034     O2044   1.935       .  S
Fe2035     O2053   2.086       .  S
Fe2035     O2040   2.041       .  S
Fe2035     O2047   2.043       .  S
Fe2035     O2036   2.081       .  S
Fe2035     O2044   1.944       .  S
O2036      C2043   1.270       .  A
O2037      C2051   1.264       .  A
O2038      C2043   1.268       .  A
O2039      C2042   1.277       .  A
O2040      C2052   1.268       .  A
O2041      C2054   1.273       .  A
C2042      O2047   1.271       .  A
C2042      C2546   1.489       .  S
C2043      C2514   1.479       .  S
O2045      C2048   1.264       .  A
O2046      C2048   1.275       .  A
C2048      C2450   1.486       .  S
O2049      C2054   1.270       .  A
O2050      C2052   1.278       .  A
C2051      O2053   1.270       .  A
C2051      C2466   1.476       .  S
C2052      C2482   1.483       .  S
Fe2055     O2071   2.076       .  S
Fe2055     O2061   2.090       .  S
Fe2055     O2068   2.096       .  S
Fe2055     O2060   2.066       .  S
Fe2055     O2066   1.958       .  S
Fe2056     O2059   2.040       .  S
Fe2056     O2063   2.068       .  S
Fe2056     O2067   2.031       .  S
Fe2056     O2072   2.079       .  S
Fe2056     O2066   1.944       .  S
Fe2057     O2075   2.100       .  S
Fe2057     O2062   2.052       .  S
Fe2057     O2069   2.052       .  S
Fe2057     O2058   2.078       .  S
Fe2057     O2066   1.956       .  S
O2058      C2065   1.271       .  A
O2059      C2073   1.264       .  A
O2060      C2065   1.269       .  A
O2061      C2064   1.274       .  A
O2062      C2074   1.268       .  A
O2063      C2076   1.270       .  A
C2064      O2069   1.270       .  A
C2064      C2533   1.489       .  S
C2065      C2501   1.476       .  S
O2067      C2070   1.263       .  A
O2068      C2070   1.273       .  A
C2070      C2405   1.481       .  S
O2071      C2076   1.272       .  A
O2072      C2074   1.271       .  A
C2073      O2075   1.274       .  A
C2073      C2418   1.485       .  S
C2074      C2434   1.477       .  S
C2076      C2517   1.483       .  S
Fe2077     O2093   2.064       .  S
Fe2077     O2083   2.106       .  S
Fe2077     O2090   2.094       .  S
Fe2077     O2082   2.066       .  S
Fe2077     O2088   1.948       .  S
Fe2078     O2081   2.058       .  S
Fe2078     O2085   2.077       .  S
Fe2078     O2089   2.052       .  S
Fe2078     O2094   2.097       .  S
Fe2078     O2088   1.940       .  S
Fe2079     O2097   2.087       .  S
Fe2079     O2084   2.034       .  S
Fe2079     O2091   2.033       .  S
Fe2079     O2080   2.080       .  S
Fe2079     O2088   1.944       .  S
O2080      C2087   1.268       .  A
O2081      C2095   1.264       .  A
O2082      C2087   1.267       .  A
O2083      C2086   1.280       .  A
O2084      C2096   1.268       .  A
O2085      C2098   1.274       .  A
C2086      O2091   1.266       .  A
C2086      C3269   1.493       .  S
C2087      C2386   1.484       .  S
O2089      C2092   1.267       .  A
O2090      C2092   1.274       .  A
C2092      C2354   1.484       .  S
O2093      C2098   1.270       .  A
O2094      C2096   1.280       .  A
C2095      O2097   1.269       .  A
C2095      C2421   1.483       .  S
C2096      C2485   1.478       .  S
C2098      C2370   1.476       .  S
Fe2099     O2105   2.101       .  S
Fe2099     O2112   2.093       .  S
Fe2099     O2104   2.065       .  S
Fe2099     O2110   1.953       .  S
Fe2100     O2111   2.036       .  S
Fe2100     O2116   2.084       .  S
Fe2100     O2110   1.936       .  S
Fe2101     O2119   2.083       .  S
Fe2101     O2106   2.049       .  S
Fe2101     O2113   2.046       .  S
Fe2101     O2102   2.076       .  S
Fe2101     O2110   1.941       .  S
O2102      C2109   1.270       .  A
O2104      C2109   1.268       .  A
O2105      C2108   1.277       .  A
O2106      C2118   1.271       .  A
O2107      C2120   1.274       .  A
C2108      O2113   1.268       .  A
C2108      C3205   1.484       .  S
C2109      C2373   1.479       .  S
O2111      C2114   1.266       .  A
O2112      C2114   1.272       .  A
C2114      C2338   1.491       .  S
O2115      C2120   1.272       .  A
O2116      C2118   1.273       .  A
C2117      O2119   1.270       .  A
C2118      C2437   1.485       .  S
C2120      C2389   1.484       .  S
Fe2121     O2137   2.056       .  S
Fe2121     O2127   2.114       .  S
Fe2121     O2134   2.104       .  S
Fe2121     O2126   2.061       .  S
Fe2121     O2132   1.950       .  S
Fe2122     O2125   2.060       .  S
Fe2122     O2129   2.080       .  S
Fe2122     O2133   2.046       .  S
Fe2122     O2138   2.080       .  S
Fe2122     O2132   1.944       .  S
Fe2123     O2141   2.074       .  S
Fe2123     O2128   2.052       .  S
Fe2123     O2135   2.042       .  S
Fe2123     O2124   2.067       .  S
Fe2123     O2132   1.947       .  S
O2124      C2131   1.267       .  A
O2125      C2139   1.268       .  A
O2126      C2131   1.267       .  A
O2127      C2130   1.280       .  A
O2128      C2140   1.270       .  A
O2129      C2142   1.272       .  A
C2130      O2135   1.267       .  A
C2130      C2821   1.491       .  S
C2131      C2274   1.476       .  S
O2133      C2136   1.265       .  A
O2134      C2136   1.275       .  A
C2136      C2357   1.479       .  S
O2137      C2142   1.269       .  A
O2138      C2140   1.273       .  A
C2139      O2141   1.269       .  A
C2139      C2322   1.477       .  S
C2140      C2309   1.480       .  S
C2142      C2290   1.474       .  S
Fe2143     O2159   2.063       .  S
Fe2143     O2149   2.098       .  S
Fe2143     O2156   2.092       .  S
Fe2143     O2154   1.955       .  S
Fe2144     O2147   2.048       .  S
Fe2144     O2151   2.062       .  S
Fe2144     O2155   2.026       .  S
Fe2144     O2160   2.074       .  S
Fe2144     O2154   1.945       .  S
Fe2145     O2163   2.086       .  S
Fe2145     O2157   2.059       .  S
Fe2145     O2154   1.953       .  S
O2146      C2153   1.270       .  A
O2147      C2161   1.266       .  A
O2148      C2153   1.266       .  A
O2149      C2152   1.278       .  A
O2151      C2164   1.268       .  A
C2152      O2157   1.274       .  A
C2152      C2757   1.491       .  S
C2153      C2293   1.481       .  S
O2155      C2158   1.262       .  A
O2156      C2158   1.274       .  A
C2158      C2341   1.483       .  S
O2159      C2164   1.268       .  A
O2160      C2162   1.271       .  A
C2161      O2163   1.269       .  A
C2161      C2258   1.483       .  S
C2164      C2277   1.469       .  S
Fe2165     O2181   2.053       .  S
Fe2165     O2171   2.083       .  S
Fe2165     O2178   2.091       .  S
Fe2165     O2170   2.050       .  S
Fe2165     O2176   1.956       .  S
Fe2166     O2169   2.054       .  S
Fe2166     O2173   2.071       .  S
Fe2166     O2177   2.049       .  S
Fe2166     O2182   2.071       .  S
Fe2166     O2176   1.936       .  S
Fe2167     O2185   2.076       .  S
Fe2167     O2172   2.059       .  S
Fe2167     O2179   2.049       .  S
Fe2167     O2168   2.070       .  S
Fe2167     O2176   1.950       .  S
O2168      C2175   1.270       .  A
O2169      C2183   1.268       .  A
O2170      C2175   1.267       .  A
O2171      C2174   1.274       .  A
O2172      C2184   1.272       .  A
O2173      C2186   1.272       .  A
C2174      O2179   1.267       .  A
C2174      C3013   1.483       .  S
O2177      C2180   1.269       .  A
O2178      C2180   1.270       .  A
C2180      C2453   1.492       .  S
O2181      C2186   1.268       .  A
O2182      C2184   1.269       .  A
C2183      O2185   1.270       .  A
C2183      C2325   1.476       .  S
C2184      C2242   1.480       .  S
C2186      C2226   1.481       .  S
Fe2187     O2203   2.060       .  S
Fe2187     O2193   2.087       .  S
Fe2187     O2200   2.083       .  S
Fe2187     O2192   2.055       .  S
Fe2187     O2198   1.957       .  S
Fe2188     O2191   2.061       .  S
Fe2188     O2195   2.065       .  S
Fe2188     O2199   2.046       .  S
Fe2188     O2204   2.081       .  S
Fe2188     O2198   1.939       .  S
Fe2189     O2207   2.072       .  S
Fe2189     O2194   2.051       .  S
Fe2189     O2201   2.041       .  S
Fe2189     O2190   2.071       .  S
Fe2189     O2198   1.948       .  S
O2190      C2197   1.267       .  A
O2191      C2205   1.268       .  A
O2192      C2197   1.266       .  A
O2193      C2196   1.274       .  A
O2194      C2206   1.272       .  A
O2195      C2208   1.272       .  A
C2196      O2201   1.269       .  A
C2196      C2981   1.479       .  S
C2197      C2229   1.466       .  S
O2199      C2202   1.268       .  A
O2200      C2202   1.270       .  A
C2202      C2402   1.488       .  S
O2203      C2208   1.270       .  A
O2204      C2206   1.272       .  A
C2205      O2207   1.267       .  A
C2205      C2261   1.481       .  S
C2206      C2306   1.481       .  S
C2208      C2213   1.473       .  S
C2209      C2210   1.403       .  A
C2209      C2214   1.405       .  A
C2209      H2216   1.084       .  S
C2210      C2211   1.412       .  A
C2211      C2212   1.399       .  A
C2212      C2213   1.403       .  A
C2212      H2217   1.083       .  S
C2213      C2214   1.414       .  A
C2214      C2215   1.508       .  S
C2215      H2219   1.111       .  S
C2215      H2220   1.110       .  S
C2215      H2221   1.111       .  S
C2218      H2222   1.108       .  S
C2218      H2223   1.111       .  S
C2225      C2226   1.406       .  A
C2225      C2230   1.399       .  A
C2225      H2232   1.083       .  S
C2226      C2227   1.419       .  A
C2227      C2228   1.404       .  A
C2227      C2234   1.508       .  S
C2228      C2229   1.400       .  A
C2228      H2233   1.084       .  S
C2229      C2230   1.410       .  A
C2230      C2231   1.509       .  S
C2231      H2235   1.111       .  S
C2231      H2236   1.107       .  S
C2231      H2237   1.110       .  S
C2234      H2238   1.110       .  S
C2234      H2239   1.111       .  S
C2234      H2240   1.111       .  S
C2241      C2242   1.401       .  A
C2242      C2243   1.419       .  A
C2243      C2244   1.402       .  A
C2243      C2250   1.508       .  S
C2244      C2245   1.404       .  A
C2244      H2249   1.085       .  S
C2246      C2247   1.510       .  S
C2247      H2251   1.111       .  S
C2247      H2252   1.110       .  S
C2247      H2253   1.108       .  S
C2250      H2254   1.110       .  S
C2250      H2255   1.107       .  S
C2250      H2256   1.111       .  S
C2257      C2258   1.402       .  A
C2257      C2262   1.402       .  A
C2257      H2264   1.084       .  S
C2258      C2259   1.419       .  A
C2259      C2260   1.405       .  A
C2259      C2266   1.508       .  S
C2260      C2261   1.403       .  A
C2260      H2265   1.084       .  S
C2261      C2262   1.418       .  A
C2262      C2263   1.509       .  S
C2263      H2267   1.111       .  S
C2263      H2268   1.110       .  S
C2263      H2269   1.106       .  S
C2266      H2270   1.110       .  S
C2266      H2271   1.107       .  S
C2266      H2272   1.111       .  S
C2273      C2274   1.404       .  A
C2273      C2278   1.403       .  A
C2273      H2280   1.086       .  S
C2274      C2275   1.416       .  A
C2275      C2276   1.401       .  A
C2275      C2282   1.508       .  S
C2276      C2277   1.400       .  A
C2276      H2281   1.085       .  S
C2277      C2278   1.412       .  A
C2278      C2279   1.507       .  S
C2279      H2283   1.111       .  S
C2279      H2284   1.109       .  S
C2279      H2285   1.110       .  S
C2282      H2286   1.109       .  S
C2282      H2287   1.110       .  S
C2282      H2288   1.111       .  S
C2289      C2290   1.403       .  A
C2289      C2294   1.407       .  A
C2289      H2296   1.085       .  S
C2290      C2291   1.412       .  A
C2291      C2292   1.399       .  A
C2291      C2298   1.508       .  S
C2292      C2293   1.403       .  A
C2292      H2297   1.084       .  S
C2293      C2294   1.418       .  A
C2294      C2295   1.508       .  S
C2295      H2299   1.111       .  S
C2295      H2300   1.110       .  S
C2295      H2301   1.110       .  S
C2298      H2302   1.110       .  S
C2298      H2303   1.110       .  S
C2298      H2304   1.111       .  S
C2305      C2306   1.403       .  A
C2305      C2310   1.399       .  A
C2305      H2312   1.084       .  S
C2306      C2307   1.418       .  A
C2307      C2308   1.404       .  A
C2307      C2314   1.510       .  S
C2308      C2309   1.405       .  A
C2308      H2313   1.084       .  S
C2309      C2310   1.416       .  A
C2310      C2311   1.508       .  S
C2311      H2315   1.110       .  S
C2311      H2316   1.111       .  S
C2311      H2317   1.107       .  S
C2314      H2318   1.110       .  S
C2314      H2319   1.108       .  S
C2314      H2320   1.111       .  S
C2321      C2322   1.406       .  A
C2321      C2326   1.402       .  A
C2321      H2328   1.083       .  S
C2322      C2323   1.411       .  A
C2323      C2324   1.402       .  A
C2323      C2330   1.507       .  S
C2324      C2325   1.406       .  A
C2324      H2329   1.084       .  S
C2325      C2326   1.412       .  A
C2326      C2327   1.508       .  S
C2327      H2331   1.111       .  S
C2327      H2332   1.109       .  S
C2327      H2333   1.110       .  S
C2330      H2334   1.110       .  S
C2330      H2335   1.110       .  S
C2330      H2336   1.110       .  S
C2337      C2338   1.405       .  A
C2337      C2342   1.395   1_455  A
C2337      H2344   1.084       .  S
C2338      C2339   1.420       .  A
C2339      C2340   1.409   1_455  A
C2339      C2346   1.506       .  S
C2340      C2341   1.405       .  A
C2340      H2345   1.084       .  S
C2341      C2342   1.419       .  A
C2342      C2343   1.514       .  S
C2343      H2347   1.111       .  S
C2343      H2348   1.109       .  S
C2343      H2349   1.110       .  S
C2346      H2350   1.107       .  S
C2346      H2351   1.110       .  S
C2346      H2352   1.111       .  S
C2353      C2354   1.406       .  A
C2353      C2358   1.409   1_455  A
C2353      H2360   1.084       .  S
C2354      C2355   1.417       .  A
C2355      C2356   1.405   1_455  A
C2355      C2362   1.509       .  S
C2356      C2357   1.403       .  A
C2356      H2361   1.084       .  S
C2357      C2358   1.412       .  A
C2358      C2359   1.506       .  S
C2359      H2363   1.111   1_655  S
C2359      H2364   1.110       .  S
C2359      H2365   1.111       .  S
C2362      H2366   1.111       .  S
C2362      H2367   1.109       .  S
C2362      H2368   1.111       .  S
C2369      C2370   1.401       .  A
C2369      C2374   1.403       .  A
C2369      H2376   1.085       .  S
C2370      C2371   1.414       .  A
C2371      C2372   1.404       .  A
C2371      C2378   1.508       .  S
C2372      C2373   1.404       .  A
C2372      H2377   1.085       .  S
C2373      C2374   1.416       .  A
C2374      C2375   1.506       .  S
C2375      H2379   1.111       .  S
C2375      H2380   1.107       .  S
C2375      H2381   1.111       .  S
C2378      H2382   1.110       .  S
C2378      H2383   1.111       .  S
C2378      H2384   1.111       .  S
C2385      C2386   1.405       .  A
C2385      C2390   1.406       .  A
C2385      H2392   1.085       .  S
C2386      C2387   1.416       .  A
C2387      C2388   1.406       .  A
C2387      C2394   1.508       .  S
C2388      C2389   1.404       .  A
C2388      H2393   1.085       .  S
C2389      C2390   1.415       .  A
C2390      C2391   1.507       .  S
C2391      H2395   1.111       .  S
C2391      H2396   1.109       .  S
C2391      H2397   1.110       .  S
C2394      H2398   1.109       .  S
C2394      H2399   1.110       .  S
C2394      H2400   1.111       .  S
C2401      C2402   1.404       .  A
C2401      C2406   1.396   1_655  A
C2401      H2408   1.084       .  S
C2402      C2403   1.420       .  A
C2403      C2404   1.411   1_655  A
C2403      C2410   1.507       .  S
C2404      C2405   1.405       .  A
C2404      H2409   1.084       .  S
C2405      C2406   1.416       .  A
C2406      C2407   1.512       .  S
C2407      H2411   1.111       .  S
C2407      H2412   1.109       .  S
C2407      H2413   1.111       .  S
C2410      H2414   1.108       .  S
C2410      H2415   1.110       .  S
C2410      H2416   1.111       .  S
C2417      C2418   1.406       .  A
C2417      C2422   1.407       .  A
C2417      H2424   1.084       .  S
C2418      C2419   1.417       .  A
C2419      C2420   1.404       .  A
C2419      C2426   1.510       .  S
C2420      C2421   1.405       .  A
C2420      H2425   1.085       .  S
C2421      C2422   1.414       .  A
C2422      C2423   1.507       .  S
C2423      H2427   1.111       .  S
C2423      H2428   1.108       .  S
C2423      H2429   1.110       .  S
C2426      H2430   1.108       .  S
C2426      H2431   1.110       .  S
C2426      H2432   1.111       .  S
C2433      C2434   1.403       .  A
C2433      C2438   1.404       .  A
C2433      H2440   1.085       .  S
C2434      C2435   1.414       .  A
C2435      C2436   1.399       .  A
C2435      C2442   1.507       .  S
C2436      C2437   1.405       .  A
C2436      H2441   1.085       .  S
C2437      C2438   1.421       .  A
C2438      C2439   1.508       .  S
C2439      H2443   1.111       .  S
C2439      H2444   1.110       .  S
C2439      H2445   1.108       .  S
C2442      H2446   1.109       .  S
C2442      H2447   1.105       .  S
C2442      H2448   1.111       .  S
C2449      C2450   1.405       .  A
C2449      C2454   1.412   1_455  A
C2449      H2456   1.085       .  S
C2450      C2451   1.416       .  A
C2451      C2452   1.397   1_455  A
C2451      C2458   1.512       .  S
C2452      C2453   1.405       .  A
C2452      H2457   1.085       .  S
C2453      C2454   1.425       .  A
C2454      C2455   1.509       .  S
C2455      H2459   1.111       .  S
C2455      H2460   1.111       .  S
C2455      H2461   1.101       .  S
C2458      H2462   1.109       .  S
C2458      H2463   1.111       .  S
C2458      H2464   1.111       .  S
C2465      C2466   1.406       .  A
C2465      C2470   1.404       .  A
C2465      H2472   1.084       .  S
C2466      C2467   1.411       .  A
C2468      H2473   1.084       .  S
C2469      C2470   1.414       .  A
C2470      C2471   1.509       .  S
C2471      H2475   1.111       .  S
C2471      H2476   1.108       .  S
C2471      H2477   1.110       .  S
C2474      H2479   1.111       .  S
C2474      H2480   1.109       .  S
C2481      C2482   1.406       .  A
C2481      C2486   1.403       .  A
C2481      H2488   1.084       .  S
C2482      C2483   1.419       .  A
C2483      C2484   1.401       .  A
C2483      C2490   1.510       .  S
C2484      C2485   1.403       .  A
C2484      H2489   1.084       .  S
C2485      C2486   1.417       .  A
C2486      C2487   1.511       .  S
C2487      H2491   1.111       .  S
C2487      H2492   1.109       .  S
C2487      H2493   1.111       .  S
C2490      H2494   1.109       .  S
C2490      H2495   1.110       .  S
C2490      H2496   1.111       .  S
C2497      C2498   1.405       .  A
C2497      C2502   1.404       .  A
C2497      H2504   1.084       .  S
C2498      C2499   1.420       .  A
C2499      C2500   1.405       .  A
C2499      C2506   1.510       .  S
C2500      C2501   1.402       .  A
C2500      H2505   1.084       .  S
C2501      C2502   1.411       .  A
C2502      C2503   1.507       .  S
C2503      H2507   1.111       .  S
C2503      H2508   1.109       .  S
C2503      H2509   1.110       .  S
C2506      H2510   1.109       .  S
C2506      H2512   1.111       .  S
C2513      C2514   1.402       .  A
C2513      C2518   1.404       .  A
C2513      H2520   1.085       .  S
C2514      C2515   1.415       .  A
C2515      C2516   1.407       .  A
C2515      C2522   1.508       .  S
C2516      C2517   1.405       .  A
C2516      H2521   1.084       .  S
C2517      C2518   1.417       .  A
C2518      C2519   1.508       .  S
C2519      H2523   1.111       .  S
C2519      H2524   1.109       .  S
C2519      H2525   1.110       .  S
C2522      H2526   1.109       .  S
C2522      H2527   1.110       .  S
C2522      H2528   1.111       .  S
C2529      C2530   1.404       .  A
C2529      C2534   1.404       .  A
C2529      H2536   1.084       .  S
C2530      C2531   1.417       .  A
C2531      C2532   1.405       .  A
C2531      C2538   1.509       .  S
C2532      C2533   1.407       .  A
C2532      H2537   1.084       .  S
C2533      C2534   1.418       .  A
C2534      C2535   1.508       .  S
C2535      H2539   1.111       .  S
C2535      H2540   1.110       .  S
C2535      H2541   1.110       .  S
C2538      H2542   1.109       .  S
C2538      H2543   1.111       .  S
C2538      H2544   1.111       .  S
C2545      C2546   1.406       .  A
C2545      C2550   1.401       .  A
C2545      H2552   1.084       .  S
C2546      C2547   1.417       .  A
C2547      C2548   1.406       .  A
C2547      C2554   1.507       .  S
C2548      C2549   1.406       .  A
C2548      H2553   1.083       .  S
C2549      C2550   1.419       .  A
C2550      C2551   1.511       .  S
C2551      H2555   1.111       .  S
C2551      H2556   1.109       .  S
C2551      H2557   1.109       .  S
C2554      H2558   1.110       .  S
C2554      H2559   1.110       .  S
C2561      C2562   1.405       .  A
C2561      C2566   1.406       .  A
C2561      H2568   1.085       .  S
C2562      C2563   1.415       .  A
C2563      C2564   1.404       .  A
C2563      C2570   1.508       .  S
C2564      C2565   1.405       .  A
C2564      H2569   1.084       .  S
C2565      C2566   1.415       .  A
C2566      C2567   1.507       .  S
C2567      H2571   1.111       .  S
C2567      H2572   1.109       .  S
C2567      H2573   1.110       .  S
C2570      H2574   1.109       .  S
C2570      H2575   1.110       .  S
C2570      H2576   1.111       .  S
C2577      C2578   1.401       .  A
C2577      C2582   1.403       .  A
C2577      H2584   1.085       .  S
C2578      C2579   1.415       .  A
C2579      C2580   1.404       .  A
C2579      C2586   1.507       .  S
C2580      C2581   1.403       .  A
C2580      H2585   1.084       .  S
C2581      C2582   1.417       .  A
C2582      C2583   1.508       .  S
C2583      H2587   1.111       .  S
C2583      H2588   1.110       .  S
C2583      H2589   1.110       .  S
C2586      H2590   1.109       .  S
C2586      H2591   1.111       .  S
C2586      H2592   1.110       .  S
C2593      C2594   1.406       .  A
C2593      C2598   1.402       .  A
C2593      H2600   1.084       .  S
C2594      C2595   1.421       .  A
C2596      H2601   1.085       .  S
C2597      C2598   1.414   1_554  A
C2598      C2599   1.510       .  S
C2599      H2603   1.109       .  S
C2599      H2604   1.111       .  S
C2599      H2605   1.110       .  S
C2602      H2606   1.109       .  S
C2602      H2607   1.111       .  S
C2602      H2608   1.111       .  S
C2609      C2610   1.405       .  A
C2609      C2614   1.403       .  A
C2609      H2616   1.085       .  S
C2610      C2611   1.413       .  A
C2611      C2612   1.403       .  A
C2611      C2618   1.509       .  S
C2612      C2613   1.406       .  A
C2612      H2617   1.085       .  S
C2613      C2614   1.413       .  A
C2614      C2615   1.509       .  S
C2615      H2619   1.111       .  S
C2615      H2620   1.108       .  S
C2615      H2621   1.110       .  S
C2618      H2622   1.109       .  S
C2618      H2623   1.110       .  S
C2618      H2624   1.111       .  S
C2625      C2626   1.403       .  A
C2625      C2630   1.407       .  A
C2625      H2632   1.083       .  S
C2626      C2627   1.415       .  A
C2627      C2628   1.406       .  A
C2627      C2634   1.508       .  S
C2628      C2629   1.405       .  A
C2628      H2633   1.084       .  S
C2629      C2630   1.419       .  A
C2630      C2631   1.509       .  S
C2631      H2635   1.111       .  S
C2631      H2636   1.110       .  S
C2631      H2637   1.111       .  S
C2634      H2638   1.110       .  S
C2634      H2639   1.110       .  S
C2634      H2640   1.111       .  S
C2641      C2642   1.403       .  A
C2641      C2646   1.402       .  A
C2641      H2648   1.083       .  S
C2642      C2643   1.414       .  A
C2643      C2644   1.406       .  A
C2643      C2650   1.508       .  S
C2644      C2645   1.405       .  A
C2644      H2649   1.084       .  S
C2645      C2646   1.414       .  A
C2646      C2647   1.507       .  S
C2647      H2651   1.111       .  S
C2647      H2652   1.108       .  S
C2647      H2653   1.110       .  S
C2650      H2654   1.109       .  S
C2650      H2655   1.110       .  S
C2650      H2656   1.111       .  S
C2657      C2658   1.404       .  A
C2657      C2662   1.402       .  A
C2657      H2664   1.085       .  S
C2658      C2659   1.416       .  A
C2659      C2660   1.407       .  A
C2659      C2666   1.509       .  S
C2660      C2661   1.408       .  A
C2660      H2665   1.084       .  S
C2661      C2662   1.419       .  A
C2662      C2663   1.510       .  S
C2663      H2667   1.111       .  S
C2663      H2668   1.109       .  S
C2663      H2669   1.108       .  S
C2666      H2670   1.109       .  S
C2666      H2671   1.110       .  S
C2666      H2672   1.111       .  S
C2673      C2674   1.405       .  A
C2673      C2678   1.404       .  A
C2673      H2680   1.084       .  S
C2674      C2675   1.414       .  A
C2675      C2676   1.404       .  A
C2675      C2682   1.509       .  S
C2676      C2677   1.406       .  A
C2676      H2681   1.084       .  S
C2677      C2678   1.415       .  A
C2678      C2679   1.509       .  S
C2679      H2683   1.111       .  S
C2679      H2684   1.108       .  S
C2679      H2685   1.110       .  S
C2682      H2686   1.108       .  S
C2682      H2687   1.111       .  S
C2682      H2688   1.111       .  S
C2689      C2690   1.405       .  A
C2689      C2694   1.409       .  A
C2689      H2696   1.084       .  S
C2690      C2691   1.416       .  A
C2691      C2692   1.399       .  A
C2691      C2698   1.510       .  S
C2692      C2693   1.402       .  A
C2692      H2697   1.084       .  S
C2693      C2694   1.415       .  A
C2694      C2695   1.505       .  S
C2695      H2699   1.111       .  S
C2695      H2700   1.110       .  S
C2695      H2701   1.109       .  S
C2698      H2702   1.111       .  S
C2698      H2703   1.108       .  S
C2698      H2704   1.111       .  S
C2705      C2706   1.408       .  A
C2705      C2710   1.413       .  A
C2705      H2712   1.084       .  S
C2706      C2707   1.420       .  A
C2707      C2708   1.402       .  A
C2707      C2714   1.510       .  S
C2708      C2709   1.402       .  A
C2708      H2713   1.085       .  S
C2709      C2710   1.415       .  A
C2710      C2711   1.505       .  S
C2711      H2715   1.111       .  S
C2711      H2716   1.110       .  S
C2711      H2717   1.109       .  S
C2714      H2718   1.111       .  S
C2714      H2719   1.109       .  S
C2714      H2720   1.111       .  S
C2721      C2722   1.404       .  A
C2721      C2726   1.404       .  A
C2721      H2728   1.085       .  S
C2722      C2723   1.418       .  A
C2723      C2724   1.402       .  A
C2723      C2730   1.508       .  S
C2724      C2725   1.400       .  A
C2724      H2729   1.085       .  S
C2725      C2726   1.413       .  A
C2726      C2727   1.507       .  S
C2727      H2731   1.111       .  S
C2727      H2732   1.109       .  S
C2727      H2733   1.110       .  S
C2730      H2734   1.109       .  S
C2730      H2735   1.108       .  S
C2730      H2736   1.111       .  S
C2737      C2738   1.404       .  A
C2737      C2742   1.401       .  A
C2737      H2744   1.084       .  S
C2738      C2739   1.417       .  A
C2739      C2740   1.405       .  A
C2739      C2746   1.508       .  S
C2740      C2741   1.401       .  A
C2740      H2745   1.084       .  S
C2741      C2742   1.412       .  A
C2742      C2743   1.505       .  S
C2743      H2747   1.111       .  S
C2743      H2748   1.110       .  S
C2743      H2749   1.108       .  S
C2746      H2750   1.110       .  S
C2746      H2751   1.110       .  S
C2746      H2752   1.111       .  S
C2753      C2754   1.406       .  A
C2753      C2758   1.407       .  A
C2753      H2760   1.084       .  S
C2754      C2755   1.421       .  A
C2755      C2756   1.406       .  A
C2755      C2762   1.509       .  S
C2756      C2757   1.405       .  A
C2756      H2761   1.084       .  S
C2757      C2758   1.417       .  A
C2759      H2763   1.111       .  S
C2759      H2764   1.110       .  S
C2759      H2765   1.110       .  S
C2762      H2766   1.111       .  S
C2762      H2767   1.109       .  S
C2762      H2768   1.111       .  S
C2769      C2770   1.405       .  A
C2769      C2774   1.403       .  A
C2769      H2776   1.084       .  S
C2770      C2771   1.418       .  A
C2771      C2772   1.413       .  A
C2771      C2778   1.506       .  S
C2772      C2773   1.405       .  A
C2772      H2777   1.085       .  S
C2773      C2774   1.416       .  A
C2774      C2775   1.511       .  S
C2775      H2779   1.111       .  S
C2775      H2780   1.109       .  S
C2775      H2781   1.111       .  S
C2778      H2782   1.110       .  S
C2778      H2783   1.110       .  S
C2778      H2784   1.111       .  S
C2785      C2786   1.402       .  A
C2786      C2787   1.418       .  A
C2787      C2788   1.403       .  A
C2787      C2794   1.508       .  S
C2788      C2789   1.402       .  A
C2788      H2793   1.084       .  S
C2790      C2791   1.509       .  S
C2791      H2795   1.111       .  S
C2791      H2796   1.110       .  S
C2791      H2797   1.107       .  S
C2794      H2798   1.110       .  S
C2794      H2799   1.107       .  S
C2794      H2800   1.111       .  S
C2801      C2802   1.404       .  A
C2801      C2806   1.404       .  A
C2801      H2808   1.085       .  S
C2802      C2803   1.415       .  A
C2803      C2804   1.404       .  A
C2803      C2810   1.509       .  S
C2804      C2805   1.406       .  A
C2804      H2809   1.085       .  S
C2805      C2806   1.420       .  A
C2806      C2807   1.511       .  S
C2807      H2811   1.111       .  S
C2807      H2812   1.109       .  S
C2807      H2813   1.110       .  S
C2810      H2814   1.109       .  S
C2810      H2815   1.111       .  S
C2810      H2816   1.111       .  S
C2817      C2818   1.403       .  A
C2817      C2822   1.403       .  A
C2817      H2824   1.084       .  S
C2818      C2819   1.418       .  A
C2819      C2820   1.409       .  A
C2819      C2826   1.508       .  S
C2820      C2821   1.406       .  A
C2820      H2825   1.084       .  S
C2821      C2822   1.420       .  A
C2822      C2823   1.510       .  S
C2823      H2827   1.111       .  S
C2823      H2828   1.109       .  S
C2823      H2829   1.108       .  S
C2826      H2830   1.110       .  S
C2826      H2831   1.109       .  S
C2826      H2832   1.111       .  S
C2833      C2834   1.400       .  A
C2833      C2838   1.400       .  A
C2833      H2840   1.085       .  S
C2834      C2835   1.417       .  A
C2835      C2836   1.412       .  A
C2835      C2842   1.505       .  S
C2836      C2837   1.406       .  A
C2836      H2841   1.083       .  S
C2837      C2838   1.419       .  A
C2838      C2839   1.510       .  S
C2839      H2843   1.111       .  S
C2839      H2844   1.109       .  S
C2839      H2845   1.108       .  S
C2842      H2846   1.110       .  S
C2842      H2847   1.109       .  S
C2842      H2848   1.111       .  S
C2849      C2850   1.407       .  A
C2849      C2854   1.402       .  A
C2849      H2856   1.086       .  S
C2850      C2851   1.414       .  A
C2851      C2852   1.402       .  A
C2851      C2858   1.509       .  S
C2852      C2853   1.404       .  A
C2852      H2857   1.084       .  S
C2853      C2854   1.411       .  A
C2854      C2855   1.507       .  S
C2855      H2859   1.110       .  S
C2855      H2860   1.111       .  S
C2855      H2861   1.109       .  S
C2858      H2862   1.108       .  S
C2858      H2863   1.110       .  S
C2858      H2864   1.111       .  S
C2865      C2866   1.404       .  A
C2865      C2870   1.403       .  A
C2865      H2872   1.084       .  S
C2866      C2867   1.415       .  A
C2867      C2868   1.400       .  A
C2867      C2874   1.509       .  S
C2868      C2869   1.401       .  A
C2868      H2873   1.084       .  S
C2869      C2870   1.412       .  A
C2870      C2871   1.506       .  S
C2871      H2875   1.111       .  S
C2871      H2876   1.109       .  S
C2871      H2877   1.109       .  S
C2874      H2878   1.109       .  S
C2874      H2879   1.110       .  S
C2874      H2880   1.111       .  S
C2881      C2882   1.403       .  A
C2881      C2886   1.402       .  A
C2881      H2888   1.084       .  S
C2882      C2883   1.416       .  A
C2883      C2884   1.403       .  A
C2883      C2890   1.510       .  S
C2884      C2885   1.403       .  A
C2884      H2889   1.083       .  S
C2885      C2886   1.416       .  A
C2886      C2887   1.510       .  S
C2887      H2891   1.110       .  S
C2890      H2894   1.110       .  S
C2890      H2895   1.111       .  S
C2890      H2896   1.111       .  S
C2897      C2898   1.404       .  A
C2897      C2902   1.400       .  A
C2897      H2904   1.085       .  S
C2898      C2899   1.420       .  A
C2899      C2900   1.403       .  A
C2899      C2906   1.510       .  S
C2900      C2901   1.402       .  A
C2900      H2905   1.084       .  S
C2901      C2902   1.414       .  A
C2902      C2903   1.507       .  S
C2903      H2907   1.111       .  S
C2903      H2908   1.110       .  S
C2903      H2909   1.106       .  S
C2906      H2910   1.110       .  S
C2906      H2911   1.108       .  S
C2906      H2912   1.111       .  S
C2913      C2914   1.406       .  A
C2913      C2918   1.401       .  A
C2913      H2920   1.083       .  S
C2914      C2915   1.420       .  A
C2915      C2916   1.408       .  A
C2915      C2922   1.508       .  S
C2916      C2917   1.408       .  A
C2916      H2921   1.083       .  S
C2917      C2918   1.422       .  A
C2918      C2919   1.511       .  S
C2919      H2923   1.111       .  S
C2919      H2924   1.110       .  S
C2919      H2925   1.111       .  S
C2922      H2926   1.110       .  S
C2922      H2927   1.111       .  S
C2922      H2928   1.111       .  S
C2929      C2930   1.406       .  A
C2929      C2934   1.405       .  A
C2929      H2936   1.084       .  S
C2930      C2931   1.423       .  A
C2931      C2932   1.408       .  A
C2931      C2938   1.508       .  S
C2932      C2933   1.404       .  A
C2932      H2937   1.084       .  S
C2933      C2934   1.421       .  A
C2934      C2935   1.511       .  S
C2935      H2939   1.111       .  S
C2935      H2940   1.109       .  S
C2935      H2941   1.111       .  S
C2938      H2942   1.110       .  S
C2938      H2943   1.110       .  S
C2938      H2944   1.111       .  S
C2945      C2946   1.400       .  A
C2945      C2950   1.399       .  A
C2945      H2952   1.085       .  S
C2946      C2947   1.413       .  A
C2947      C2948   1.402       .  A
C2947      C2954   1.508       .  S
C2948      C2949   1.402       .  A
C2948      H2953   1.086       .  S
C2949      C2950   1.416       .  A
C2950      C2951   1.509       .  S
C2951      H2955   1.111       .  S
C2951      H2956   1.109       .  S
C2951      H2957   1.110       .  S
C2954      H2958   1.109       .  S
C2954      H2959   1.110       .  S
C2954      H2960   1.111       .  S
C2961      C2962   1.404       .  A
C2961      H2968   1.084       .  S
C2962      C2963   1.414       .  A
C2963      C2970   1.507       .  S
C2964      C2965   1.400   1_554  A
C2964      H2969   1.085   1_554  S
C2965      C2966   1.412       .  A
C2966      C2967   1.508       .  S
C2967      H2971   1.111       .  S
C2967      H2972   1.110       .  S
C2967      H2973   1.111       .  S
C2970      H2974   1.110       .  S
C2970      H2975   1.108       .  S
C2970      H2976   1.111       .  S
C2977      C2978   1.406       .  A
C2977      C2982   1.403       .  A
C2977      H2984   1.084       .  S
C2978      C2979   1.418       .  A
C2979      C2980   1.399       .  A
C2979      C2986   1.510       .  S
C2980      C2981   1.403       .  A
C2980      H2985   1.084       .  S
C2981      C2982   1.415       .  A
C2982      C2983   1.508       .  S
C2983      H2987   1.111       .  S
C2983      H2988   1.110       .  S
C2983      H2989   1.111       .  S
C2986      H2990   1.111       .  S
C2986      H2991   1.110       .  S
C2986      H2992   1.111       .  S
C2993      C2994   1.406       .  A
C2993      C2998   1.412   1_545  A
C2993      H3000   1.084       .  S
C2994      C2995   1.415       .  A
C2995      C2996   1.398   1_545  A
C2995      C3002   1.512       .  S
C2996      C2997   1.407       .  A
C2996      H3001   1.084       .  S
C2997      C2998   1.419       .  A
C2998      C2999   1.506       .  S
C2999      H3003   1.111       .  S
C2999      H3004   1.111       .  S
C2999      H3005   1.110       .  S
C3002      H3006   1.109       .  S
C3002      H3007   1.109       .  S
C3002      H3008   1.111       .  S
C3009      C3010   1.404       .  A
C3009      C3014   1.401       .  A
C3009      H3016   1.084       .  S
C3010      C3011   1.416       .  A
C3011      C3012   1.403       .  A
C3011      C3018   1.508       .  S
C3012      C3013   1.405       .  A
C3012      H3017   1.084       .  S
C3013      C3014   1.417       .  A
C3014      C3015   1.509       .  S
C3015      H3019   1.111       .  S
C3015      H3020   1.111       .  S
C3015      H3021   1.109       .  S
C3018      H3022   1.110       .  S
C3018      H3023   1.110       .  S
C3018      H3024   1.111       .  S
C3025      C3026   1.403       .  A
C3025      C3030   1.393   1_545  A
C3025      H3032   1.085       .  S
C3026      C3027   1.417       .  A
C3027      C3028   1.409   1_545  A
C3027      C3034   1.506       .  S
C3028      C3029   1.406       .  A
C3028      H3033   1.085       .  S
C3029      C3030   1.416       .  A
C3030      C3031   1.512       .  S
C3031      H3035   1.111       .  S
C3031      H3036   1.109       .  S
C3031      H3037   1.107       .  S
C3034      H3038   1.110       .  S
C3034      H3039   1.110       .  S
C3034      H3040   1.111       .  S
C3041      C3042   1.401       .  A
C3041      H3048   1.085       .  S
C3042      C3043   1.413       .  A
C3043      C3050   1.509       .  S
C3044      C3045   1.406       .  A
C3044      H3049   1.085       .  S
C3045      C3046   1.417       .  A
C3046      C3047   1.508       .  S
C3047      H3051   1.111       .  S
C3047      H3052   1.110       .  S
C3047      H3053   1.109       .  S
C3050      H3054   1.110       .  S
C3050      H3055   1.111       .  S
C3050      H3056   1.111       .  S
C3057      C3058   1.401       .  A
C3057      C3062   1.400       .  A
C3057      H3064   1.085       .  S
C3058      C3059   1.411       .  A
C3059      C3060   1.403       .  A
C3059      C3066   1.507       .  S
C3060      C3061   1.404       .  A
C3060      H3065   1.084       .  S
C3061      C3062   1.415       .  A
C3062      C3063   1.509       .  S
C3063      H3067   1.111       .  S
C3063      H3068   1.109       .  S
C3063      H3069   1.111       .  S
C3066      H3070   1.109       .  S
C3066      H3071   1.110       .  S
C3066      H3072   1.111       .  S
C3073      C3074   1.405       .  A
C3073      C3078   1.405       .  A
C3073      H3080   1.084       .  S
C3074      C3075   1.418       .  A
C3075      C3076   1.400       .  A
C3075      C3082   1.510       .  S
C3076      C3077   1.405       .  A
C3076      H3081   1.084       .  S
C3077      C3078   1.417       .  A
C3078      C3079   1.508       .  S
C3079      H3083   1.111       .  S
C3079      H3084   1.110       .  S
C3079      H3085   1.109       .  S
C3082      H3086   1.109       .  S
C3082      H3087   1.106       .  S
C3082      H3088   1.111       .  S
C3089      C3090   1.404       .  A
C3089      C3094   1.403       .  A
C3089      H3096   1.085       .  S
C3090      C3091   1.417       .  A
C3091      C3092   1.404       .  A
C3091      C3098   1.508       .  S
C3092      C3093   1.405       .  A
C3092      H3097   1.084       .  S
C3093      C3094   1.419       .  A
C3094      C3095   1.509       .  S
C3095      H3099   1.111       .  S
C3095      H3100   1.110       .  S
C3095      H3101   1.109       .  S
C3098      H3102   1.107       .  S
C3098      H3103   1.110       .  S
C3098      H3104   1.111       .  S
C3105      C3106   1.402       .  A
C3105      C3110   1.401       .  A
C3105      H3112   1.084       .  S
C3106      C3107   1.416       .  A
C3107      C3108   1.402       .  A
C3107      C3114   1.508       .  S
C3108      C3109   1.401       .  A
C3108      H3113   1.084       .  S
C3109      C3110   1.416       .  A
C3110      C3111   1.507       .  S
C3111      H3115   1.111       .  S
C3111      H3116   1.110       .  S
C3111      H3117   1.108       .  S
C3114      H3118   1.110       .  S
C3114      H3119   1.108       .  S
C3114      H3120   1.111       .  S
C3121      C3122   1.404       .  A
C3121      C3126   1.405       .  A
C3121      H3128   1.084       .  S
C3122      C3123   1.419       .  A
C3123      C3124   1.401       .  A
C3124      C3125   1.401       .  A
C3125      C3126   1.418       .  A
C3126      C3127   1.507       .  S
C3127      H3131   1.107       .  S
C3127      H3132   1.111       .  S
C3127      H3133   1.110       .  S
C3130      H3135   1.109       .  S
C3130      H3136   1.111       .  S
C3137      C3138   1.405       .  A
C3137      C3142   1.400       .  A
C3137      H3144   1.084       .  S
C3138      C3139   1.416       .  A
C3139      C3140   1.400       .  A
C3139      C3146   1.510       .  S
C3140      C3141   1.404       .  A
C3140      H3145   1.085       .  S
C3141      C3142   1.414       .  A
C3142      C3143   1.510       .  S
C3143      H3147   1.111       .  S
C3143      H3148   1.109       .  S
C3143      H3149   1.111       .  S
C3146      H3150   1.108       .  S
C3146      H3151   1.110       .  S
C3153      C3154   1.407       .  A
C3153      C3158   1.407       .  A
C3153      H3160   1.083       .  S
C3154      C3155   1.417       .  A
C3155      C3156   1.405       .  A
C3155      C3162   1.510       .  S
C3156      C3157   1.405       .  A
C3156      H3161   1.084       .  S
C3157      C3158   1.412       .  A
C3158      C3159   1.507       .  S
C3159      H3163   1.111       .  S
C3159      H3164   1.109       .  S
C3159      H3165   1.111       .  S
C3162      H3166   1.108       .  S
C3162      H3167   1.110       .  S
C3162      H3168   1.111       .  S
C3169      C3170   1.398       .  A
C3169      C3174   1.401       .  A
C3169      H3176   1.084       .  S
C3170      C3171   1.412       .  A
C3171      C3172   1.405       .  A
C3171      C3178   1.506       .  S
C3172      C3173   1.406       .  A
C3172      H3177   1.085       .  S
C3173      C3174   1.420       .  A
C3174      C3175   1.507       .  S
C3175      H3179   1.111       .  S
C3175      H3180   1.109       .  S
C3175      H3181   1.106       .  S
C3178      H3182   1.108       .  S
C3178      H3183   1.110       .  S
C3178      H3184   1.111       .  S
C3185      C3186   1.402       .  A
C3185      C3190   1.401       .  A
C3185      H3192   1.084       .  S
C3186      C3187   1.413       .  A
C3187      C3188   1.402       .  A
C3187      C3194   1.509       .  S
C3188      C3189   1.405       .  A
C3188      H3193   1.084       .  S
C3189      C3190   1.414       .  A
C3190      C3191   1.508       .  S
C3191      H3195   1.111       .  S
C3191      H3196   1.110       .  S
C3191      H3197   1.111       .  S
C3194      H3198   1.110       .  S
C3194      H3199   1.111       .  S
C3194      H3200   1.111       .  S
C3201      C3202   1.401       .  A
C3201      C3206   1.403       .  A
C3201      H3208   1.084       .  S
C3202      C3203   1.418   1_556  A
C3203      C3204   1.408   1_554  A
C3203      C3210   1.508       .  S
C3204      C3205   1.405       .  A
C3204      H3209   1.084   1_556  S
C3205      C3206   1.417       .  A
C3206      C3207   1.509       .  S
C3207      H3211   1.111       .  S
C3207      H3212   1.111       .  S
C3207      H3213   1.109       .  S
C3210      H3214   1.109       .  S
C3210      H3216   1.111       .  S
C3217      C3222   1.407   1_545  A
C3217      H3224   1.084       .  S
C3218      C3219   1.414       .  A
C3219      C3220   1.398   1_545  A
C3219      C3226   1.509       .  S
C3220      C3221   1.399       .  A
C3220      H3225   1.084       .  S
C3222      C3223   1.506       .  S
C3223      H3227   1.111       .  S
C3223      H3228   1.110       .  S
C3223      H3229   1.111       .  S
C3226      H3230   1.111       .  S
C3226      H3231   1.109       .  S
C3226      H3232   1.111       .  S
C3233      C3234   1.403       .  A
C3233      C3238   1.401       .  A
C3233      H3240   1.084       .  S
C3234      C3235   1.419       .  A
C3235      C3236   1.401       .  A
C3235      C3242   1.510       .  S
C3236      C3237   1.402       .  A
C3236      H3241   1.085       .  S
C3237      C3238   1.417       .  A
C3239      H3243   1.111       .  S
C3239      H3244   1.110   1_554  S
C3239      H3245   1.106   1_554  S
C3242      H3246   1.110       .  S
C3242      H3247   1.107       .  S
C3242      H3248   1.111       .  S
C3249      C3250   1.404       .  A
C3249      C3254   1.406       .  A
C3249      H3256   1.086       .  S
C3250      C3251   1.419       .  A
C3251      C3252   1.407       .  A
C3251      C3258   1.509       .  S
C3252      C3253   1.404       .  A
C3252      H3257   1.084       .  S
C3253      C3254   1.418       .  A
C3255      H3259   1.111       .  S
C3255      H3260   1.110       .  S
C3255      H3261   1.108       .  S
C3258      H3262   1.110       .  S
C3258      H3263   1.106       .  S
C3258      H3264   1.111       .  S
C3265      C3266   1.403       .  A
C3265      C3270   1.399       .  A
C3265      H3272   1.084       .  S
C3266      C3267   1.421       .  A
C3267      C3268   1.406       .  A
C3267      C3274   1.509       .  S
C3268      C3269   1.406       .  A
C3268      H3273   1.084       .  S
C3269      C3270   1.423       .  A
C3270      C3271   1.511       .  S
C3271      H3275   1.111       .  S
C3271      H3276   1.110       .  S
C3271      H3277   1.110       .  S
C3274      H3278   1.110       .  S
C3274      H3279   1.110       .  S
C3274      H3280   1.111       .  S
C3281      C3282   1.399       .  A
C3281      C3286   1.397   1_565  A
C3281      H3288   1.084       .  S
C3282      C3283   1.412       .  A
C3283      C3284   1.408   1_565  A
C3283      C3290   1.506       .  S
C3284      C3285   1.407       .  A
C3284      H3289   1.083       .  S
C3285      C3286   1.417       .  A
C3286      C3287   1.509       .  S
C3287      H3291   1.111       .  S
C3287      H3292   1.108       .  S
C3287      H3293   1.109       .  S
C3290      H3294   1.110       .  S
C3290      H3295   1.111       .  S
C3290      H3296   1.111       .  S
C3297      C3298   1.404       .  A
C3297      C3302   1.402       .  A
C3297      H3304   1.085       .  S
C3298      C3299   1.417       .  A
C3299      C3300   1.402       .  A
C3299      C3306   1.509       .  S
C3300      C3301   1.404       .  A
C3300      H3305   1.084       .  S
C3301      C3302   1.418       .  A
C3302      C3303   1.510       .  S
C3303      H3307   1.111       .  S
C3303      H3308   1.110       .  S
C3303      H3309   1.106       .  S
C3306      H3310   1.110       .  S
C3306      H3311   1.108       .  S
C3306      H3312   1.111       .  S
C3313      C3314   1.404       .  A
C3313      C3318   1.402       .  A
C3313      H3320   1.085       .  S
C3314      C3315   1.415       .  A
C3315      C3316   1.403       .  A
C3315      C3322   1.509       .  S
C3316      C3317   1.402       .  A
C3316      H3321   1.085       .  S
C3317      C3318   1.414       .  A
C3318      C3319   1.509       .  S
C3319      H3323   1.111       .  S
C3319      H3324   1.110       .  S
C3319      H3325   1.111       .  S
C3322      H3326   1.110       .  S
C3322      H3327   1.111       .  S
C3322      H3328   1.111       .  S
C3329      C3330   1.402       .  A
C3329      C3334   1.404       .  A
C3329      H3336   1.085       .  S
C3330      C3331   1.413       .  A
C3331      C3332   1.402       .  A
C3331      C3338   1.509       .  S
C3332      C3333   1.404       .  A
C3332      H3337   1.085       .  S
C3333      C3334   1.416       .  A
C3334      C3335   1.507       .  S
C3335      H3339   1.111       .  S
C3335      H3340   1.110       .  S
C3335      H3341   1.110       .  S
C3338      H3342   1.110       .  S
C3338      H3343   1.111       .  S
C3338      H3344   1.111       .  S
C3345      C3346   1.402       .  A
C3345      C3350   1.404       .  A
C3345      H3352   1.084       .  S
C3346      C3347   1.418       .  A
C3347      C3348   1.405       .  A
C3347      C3354   1.509       .  S
C3348      C3349   1.403       .  A
C3348      H3353   1.084       .  S
C3349      C3350   1.418       .  A
C3350      C3351   1.509       .  S
C3351      H3355   1.111       .  S
C3351      H3356   1.110       .  S
C3351      H3357   1.108       .  S
C3354      H3358   1.110       .  S
C3354      H3359   1.106       .  S
C3354      H3360   1.111       .  S
