geometry optimzed in LAMMPS
_audit_creation_date              2020-11-30 
_audit_creation_method            'lammps2cif' 
_symmetry_space_group_name_H-M    'P1' 
_symmetry_Int_Tables_number       1 
_symmetry_cell_setting            triclinic 
loop_ 
_symmetry_equiv_pos_as_xyz 
  x,y,z 
_cell_length_a                    26.63373627302168 
_cell_length_b                    26.848763686330184 
_cell_length_c                    20.959556780563226 
_cell_angle_alpha                 88.445003814593 
_cell_angle_beta                  90.17409457702585 
_cell_angle_gamma                 89.90311318047335 
loop_ 
_atom_site_label 
_atom_site_type_symbol 
_atom_site_fract_x 
_atom_site_fract_y 
_atom_site_fract_z 
_atom_site_charge 
C1          C  0.97791521  0.50477068  0.23173489     0.00330
C2          C  0.01559487  0.47290258  0.24906946     0.00320
C3          C  0.81557971  0.24175462  0.31907243     0.02890
C4          C  0.86313340  0.25379771  0.34822282    -0.13260
C5          C  0.89618745  0.21543193  0.37520757     0.00390
C6          C  0.88228420  0.16589379  0.36945972    -0.11790
C7          C  0.83309176  0.15393716  0.35432464     0.02880
C8          C  0.80098090  0.19103512  0.32560469    -0.11210
H9          H  0.87381882  0.29254898  0.35120706     0.08480
H10         H  0.90574323  0.13716693  0.39154888     0.06010
H11         H  0.76304263  0.18099864  0.31257853     0.05850
C12         C  0.80607615  0.24160209  0.17706105     0.02890
C13         C  0.85868831  0.24777788  0.16597193    -0.13260
C14         C  0.88782393  0.21077329  0.13429641     0.00390
C15         C  0.86563029  0.16574750  0.11966532    -0.11790
C16         C  0.81391083  0.16174819  0.11626564     0.02880
C17         C  0.78366727  0.19928147  0.14672485    -0.11210
H18         H  0.87639700  0.28227623  0.17916536     0.08480
H19         H  0.88815721  0.13770784  0.09685772     0.06010
H20         H  0.74318992  0.19574655  0.14634099     0.05850
O21         O  0.01639289  0.32571685  0.07198077    -0.82040
C22         C  0.12477067  0.19377257  0.43646685     0.97320
O23         O  0.13515219  0.23456154  0.46619177    -0.71150
O24         O  0.05418317  0.26009944  0.41572937    -0.74750
Al25       Al  0.07762673  0.25093111  0.00157145     1.48980
C26         C  0.04633943  0.30418702  0.40172647     0.92570
O27         O  0.93799668  0.26585202  0.44946624    -0.80970
O28         O  0.96189646  0.18671088  0.07503259    -0.74520
Al29       Al  0.97936203  0.29450700  0.51126045     1.90120
O30         O  0.96972868  0.18994563  0.44078024    -0.73590
O31         O  0.06700576  0.16854184  0.08969735    -0.73440
O32         O  0.08227224  0.16697367  0.44626150    -0.79100
O33         O  0.10462853  0.24080310  0.08482862    -0.77310
O34         O  0.02191596  0.24656757  0.02129672    -1.13440
O35         O  0.08893469  0.31671507  0.02156456    -0.72640
C36         C  0.05897899  0.34151632  0.05531098     0.98080
C37         C  0.93814488  0.22450012  0.42280119     0.94480
Al38       Al  0.01862148  0.18213553  0.01419305     1.55560
O39         O  0.01682018  0.32850911  0.43794378    -0.77260
C40         C  0.10180246  0.19810648  0.11007259     0.98650
C41         C  0.93409797  0.22231663  0.09640283     0.93530
O42         O  0.93989494  0.26723855  0.07791063    -0.82580
C43         C  0.77527714  0.28033535  0.21678356     0.00330
C44         C  0.77953169  0.28049788  0.28458878     0.00320
C45         C  0.74275917  0.31329120  0.32544691     0.02890
C46         C  0.69929695  0.29207619  0.35617257    -0.13260
C47         C  0.66290447  0.32154441  0.38968267     0.00390
C48         C  0.67011658  0.37274012  0.39074623    -0.11790
C49         C  0.71518254  0.39481615  0.37100708     0.02880
C50         C  0.75096002  0.36528646  0.33658116    -0.11210
H51         H  0.69443054  0.25262171  0.35370865     0.08480
H52         H  0.64336384  0.39453204  0.41715054     0.06010
H53         H  0.78571052  0.38224617  0.32053309     0.05850
C54         C  0.73720411  0.31617612  0.18138392     0.02890
C55         C  0.68584738  0.30266223  0.17653174    -0.13260
C56         C  0.64981873  0.33293691  0.14238296     0.00390
C57         C  0.66407526  0.38006927  0.11949925    -0.11790
C58         C  0.71464159  0.39428460  0.11751838     0.02880
C59         C  0.75133730  0.36185712  0.14845919    -0.11210
H60         H  0.67474806  0.26603565  0.19427417     0.08480
H61         H  0.63686318  0.40197789  0.09219488     0.06010
H62         H  0.79061166  0.37165251  0.14599049     0.05850
O63         O  0.83545739  0.53144563  0.43280253    -0.82040
C64         C  0.69584749  0.62409873  0.07725417     0.97320
O65         O  0.73852017  0.63552626  0.05092928    -0.71150
O66         O  0.76662757  0.55125960  0.09056045    -0.74750
Al67       Al  0.75584021  0.58192536  0.50928023     1.48980
C68         C  0.81125195  0.53985420  0.09980862     0.92570
O69         O  0.76794294  0.43769346  0.04196136    -0.80970
O70         O  0.69166145  0.46878161  0.42915359    -0.74520
Al71       Al  0.80014432  0.48570437  0.98532216     1.90120
O72         O  0.69420780  0.47291876  0.06147187    -0.73590
O73         O  0.67359051  0.57441648  0.41847432    -0.73440
O74         O  0.66920273  0.58310853  0.06243685    -0.79100
O75         O  0.74385293  0.61572404  0.42916434    -0.77310
O76         O  0.75211548  0.52860937  0.48250111    -1.13440
O77         O  0.82218349  0.59832915  0.49207015    -0.72640
C78         C  0.84607200  0.57586022  0.44945836     0.98080
C79         C  0.72691584  0.43815227  0.07266204     0.94480
Al80       Al  0.68677802  0.52372933  0.49107518     1.55560
O81         O  0.83337013  0.51270282  0.05992959    -0.77260
C82         C  0.70202429  0.61165186  0.40179206     0.98650
C83         C  0.72725862  0.44317395  0.40324467     0.93530
O84         O  0.77315029  0.45328306  0.41313295    -0.82580
C85         C  0.03210733  0.47494072  0.05172363     0.02890
C86         C  0.02635535  0.42380186  0.05132854    -0.13260
C87         C  0.06714936  0.39255240  0.06243466     0.00390
C88         C  0.11480489  0.41070580  0.06934491    -0.11790
C89         C  0.12116823  0.46170678  0.07098611     0.02880
C90         C  0.08026610  0.49329011  0.06656668    -0.11210
H91         H  0.99045616  0.40786323  0.03919019     0.08480
H92         H  0.14659725  0.38541192  0.57111185     0.06010
H93         H  0.08930027  0.53157934  0.07284656     0.05850
C94         C  0.13857331  0.33835946  0.26985280     0.02890
C95         C  0.10301201  0.30915832  0.30504959    -0.13260
C96         C  0.08640801  0.32704009  0.36317042     0.00390
C97         C  0.11917874  0.35676772  0.39493941    -0.11790
C98         C  0.15850826  0.38112980  0.36573583     0.02880
C99         C  0.17363949  0.36497047  0.30661524    -0.11210
H100        H  0.08129353  0.28037208  0.28275857     0.08480
H101        H  0.11292963  0.36383453  0.94306162     0.06010
H102        H  0.20819563  0.37900908  0.28674148     0.05850
C103        C  0.19186457  0.76258078  0.33150725     0.02890
C104        C  0.21066911  0.81044614  0.35026175    -0.13260
C105        C  0.18153012  0.84474457  0.38760445     0.00390
C106        C  0.13280017  0.83246905  0.40444666    -0.11790
C107        C  0.11436659  0.78438529  0.40021801     0.02880
C108        C  0.14369346  0.74912767  0.36220114    -0.11210
H109        H  0.24855249  0.82073672  0.33693805     0.08480
H110        H  0.11176353  0.85882256  0.43234005     0.06010
H111        H  0.12925619  0.71189844  0.35657508     0.05850
C112        C  0.18593536  0.76848720  0.18655418     0.02890
C113        C  0.13302999  0.76397833  0.17896040    -0.13260
C114        C  0.10293462  0.80437938  0.15290272     0.00390
C115        C  0.12427409  0.85098015  0.14382750    -0.11790
C116        C  0.17601130  0.85577414  0.14144485     0.02880
C117        C  0.20691560  0.81437141  0.16300858    -0.11210
H118        H  0.11598836  0.72802459  0.18891982     0.08480
H119        H  0.10097602  0.88119624  0.12514101     0.06010
H120        H  0.24708456  0.81670311  0.15903734     0.05850
O121        O  0.96744927  0.68690676  0.10453974    -0.82040
C122        C  0.87980147  0.81098080  0.42431757     0.97320
O123        O  0.86587911  0.77230446  0.45876631    -0.71150
O124        O  0.94758374  0.73694271  0.42970225    -0.74750
Al125      Al  0.91969795  0.75671153  0.00615474     1.48980
C126        C  0.96892524  0.69603509  0.43311170     0.92570
O127        O  0.06939347  0.74342320  0.49022848    -0.80970
O128        O  0.03584814  0.82819196  0.07754990    -0.74520
Al129      Al  0.01613172  0.71826776  0.54881965     1.90120
O130        O  0.03249734  0.80919964  0.44481170    -0.73590
O131        O  0.92835703  0.84858914  0.07581426    -0.73440
O132        O  0.92258141  0.83644122  0.43498705    -0.79100
O133        O  0.88856118  0.77674500  0.08088958    -0.77310
O134        O  0.97386647  0.76435924  0.03351409    -1.13440
O135        O  0.90394331  0.69168580  0.03508152    -0.72640
C136        C  0.92300820  0.67554492  0.08720658     0.98080
C137        C  0.06827232  0.77639332  0.44504947     0.94480
Al138      Al  0.98098643  0.82677249  0.01106774     1.55560
O139        O  0.99495781  0.68228855  0.48106123    -0.77260
C140        C  0.89108829  0.82145712  0.09632664     0.98650
C141        C  0.05579317  0.79505868  0.11646817     0.93530
O142        O  0.04114811  0.75070647  0.11795436    -0.82580
C143        C  0.21913322  0.72600675  0.21735817     0.00330
C144        C  0.22517027  0.72668839  0.28613610     0.00320
C145        C  0.25198017  0.69064748  0.17065520     0.02890
C146        C  0.23453440  0.64576452  0.13689774    -0.13260
C147        C  0.26838224  0.61559028  0.09695079     0.00390
C148        C  0.31823734  0.63019063  0.09377900    -0.11790
C149        C  0.33411605  0.67585878  0.11382924     0.02880
C150        C  0.30190655  0.70552490  0.15300280    -0.11210
H151        H  0.19577644  0.63441299  0.14202057     0.08480
H152        H  0.34408379  0.60919538  0.06468402     0.06010
H153        H  0.31526401  0.74139349  0.16792823     0.05850
C154        C  0.26899928  0.69491868  0.31729100     0.02890
C155        C  0.31551423  0.71641120  0.33838837    -0.13260
C156        C  0.35649978  0.68612751  0.36326516     0.00390
C157        C  0.35043457  0.63463216  0.36695204    -0.11790
C158        C  0.30417304  0.61282116  0.35653883     0.02880
C159        C  0.26422258  0.64242392  0.32862521    -0.11210
H160        H  0.31932181  0.75646702  0.33690416     0.08480
H161        H  0.38000424  0.61154659  0.38771511     0.06010
H162        H  0.22835121  0.62516904  0.31910966     0.05850
O163        O  0.19177287  0.46430315  0.38214779    -0.82040
C164        C  0.29908356  0.38497329  0.08562766     0.97320
O165        O  0.25455045  0.37733579  0.06212697    -0.71150
O166        O  0.20797776  0.46144354  0.06807542    -0.74750
Al167      Al  0.24407786  0.42787412  0.50597542     1.48980
C168        C  0.16735627  0.48050585  0.04872265     0.92570
O169        O  0.23232587  0.57264364  0.00173631    -0.80970
O170        O  0.32358752  0.54458409  0.43300647    -0.74520
Al171      Al  0.21281813  0.51876237  0.93872485     1.90120
O172        O  0.29235140  0.53346088  0.05934023    -0.73590
O173        O  0.34043117  0.43786698  0.42717239    -0.73440
O174        O  0.32738727  0.42469905  0.06871793    -0.79100
O175        O  0.27572749  0.38895674  0.44374768    -0.77310
O176        O  0.25569328  0.47797699  0.46900140    -1.13440
O177        O  0.18866409  0.40749584  0.46205975    -0.72640
C178        C  0.18267260  0.41956613  0.40344215     0.98080
C179        C  0.26055978  0.57015529  0.05259965     0.94480
Al180      Al  0.31710416  0.48595742  0.49445781     1.55560
O181        O  0.16378520  0.50293071  0.99571635    -0.77260
C182        C  0.31554693  0.39781634  0.41411849     0.98650
C183        C  0.29532101  0.56258104  0.38778599     0.93530
O184        O  0.25531260  0.54114985  0.37456096    -0.82580
C185        C  0.83984451  0.63416227  0.22081668     0.02890
C186        C  0.81257133  0.59940468  0.18670136    -0.13260
C187        C  0.83841100  0.57405926  0.13882122     0.00390
C188        C  0.88020254  0.59739789  0.11143755    -0.11790
C189        C  0.89129318  0.64589793  0.12835470     0.02880
C190        C  0.86473365  0.66752464  0.17866913    -0.11210
H191        H  0.77569648  0.58767491  0.20259135     0.08480
H192        H  0.89792487  0.58218418  0.56998077     0.06010
H193        H  0.87466115  0.70448978  0.19376920     0.05850
C194        C  0.97881477  0.57477362  0.41311614     0.02890
C195        C  0.93182833  0.56352173  0.43663112    -0.13260
C196        C  0.89276062  0.59573563  0.42870612     0.00390
C197        C  0.90118634  0.64429034  0.40764115    -0.11790
C198        C  0.95109981  0.65811248  0.39522717     0.02880
C199        C  0.98774354  0.62253062  0.39009871    -0.11210
H200        H  0.92360367  0.52818916  0.45868832     0.08480
H201        H  0.87147547  0.67181644  0.91011982     0.06010
H202        H  0.02434652  0.63548993  0.37617096     0.05850
C203        C  0.47782020  0.93700791  0.25113923     0.00330
C204        C  0.49547322  0.98336373  0.26204254     0.00320
C205        C  0.76554795  0.81688244  0.30846582     0.02890
C206        C  0.80688870  0.79645290  0.34450776    -0.13260
C207        C  0.84422839  0.82774492  0.37293693     0.00390
C208        C  0.84208178  0.87866108  0.36289334    -0.11790
C209        C  0.79775625  0.90086578  0.34328226     0.02880
C210        C  0.76026712  0.87041432  0.31210533    -0.11210
H211        H  0.80998383  0.75642986  0.35091331     0.08480
H212        H  0.87096568  0.90156040  0.38382311     0.06010
H213        H  0.72607430  0.88772138  0.29429086     0.05850
C214        C  0.75661148  0.82114758  0.16225871     0.02890
C215        C  0.80932808  0.81155368  0.15981646    -0.13260
C216        C  0.84333204  0.84201179  0.12324786     0.00390
C217        C  0.82465037  0.88403790  0.09093246    -0.11790
C218        C  0.77310251  0.89449057  0.08554219     0.02880
C219        C  0.73863338  0.86250060  0.12159106    -0.11210
H220        H  0.82364192  0.77826069  0.18377743     0.08480
H221        H  0.85076659  0.90576477  0.06190932     0.06010
H222        H  0.69876273  0.87015568  0.11903473     0.05850
O223        O  0.66235469  0.01046027  0.99260681    -0.82040
C224        C  0.81187548  0.11269373  0.39420551     0.97320
O225        O  0.77051650  0.12170963  0.42000451    -0.71150
O226        O  0.68082081  0.10271034  0.44901257    -0.74750
Al227      Al  0.74158139  0.08459429  0.98770631     1.48980
C228        C  0.67694256  0.09243262  0.39017700     0.92570
O229        O  0.74549706  0.96973172  0.36389224    -0.80970
O230        O  0.79244027  0.97647541  0.04400763    -0.74520
Al231      Al  0.70694582  0.99318088  0.93062292     1.90120
O232        O  0.81759530  0.96884514  0.41606543    -0.73590
O233        O  0.82312708  0.08414843  0.05353080    -0.73440
O234        O  0.83675935  0.07335645  0.41130415    -0.79100
O235        O  0.75289900  0.13539332  0.04005712    -0.77310
O236        O  0.75175460  0.03359941  0.95466237    -1.13440
O237        O  0.71195583  0.05152448  0.05703297    -0.72640
C238        C  0.67172643  0.02943966  0.04581173     0.98080
C239        C  0.78764929  0.95047021  0.37355162     0.94480
Al240      Al  0.81366071  0.02501993  0.97859607     1.55560
O241        O  0.68381610  0.04743259  0.37226359    -0.77260
C242        C  0.79504721  0.12429731  0.06876306     0.98650
C243        C  0.76212168  0.93932032  0.03989531     0.93530
O244        O  0.73003733  0.93812510  0.99317621    -0.82580
C245        C  0.72717835  0.78210289  0.27242942     0.00330
C246        C  0.72227161  0.78506161  0.20427918     0.00320
C247        C  0.68882152  0.74553951  0.16994532     0.02890
C248        C  0.70852464  0.69877058  0.15054166    -0.13260
C249        C  0.67685104  0.66148715  0.12281788     0.00390
C250        C  0.62547789  0.66808298  0.12263915    -0.11790
C251        C  0.60661602  0.71593286  0.12574588     0.02880
C252        C  0.63789309  0.75459478  0.15105452    -0.11210
H253        H  0.74861522  0.69243984  0.15379581     0.08480
H254        H  0.60216564  0.63940568  0.10232505     0.06010
H255        H  0.62376437  0.79202995  0.15160116     0.05850
C256        C  0.69517590  0.74229118  0.31242566     0.02890
C257        C  0.71389214  0.69330331  0.33036889    -0.13260
C258        C  0.68276027  0.65617013  0.36232184     0.00390
C259        C  0.63275498  0.66805162  0.37434314    -0.11790
C260        C  0.61475517  0.71679382  0.36839295     0.02880
C261        C  0.64562399  0.75356768  0.33556831    -0.11210
H262        H  0.75271883  0.68435470  0.32064234     0.08480
H263        H  0.60986856  0.64053951  0.39934823     0.06010
H264        H  0.63168273  0.79127965  0.32943735     0.05850
O265        O  0.56651143  0.76629246  0.04916834    -0.82040
C266        C  0.39941720  0.70503709  0.40320303     0.97320
O267        O  0.43635177  0.67639768  0.42097214    -0.71150
O268        O  0.54197714  0.69276698  0.43455109    -0.74750
Al269      Al  0.48339762  0.68720227  0.99512665     1.48980
C270        C  0.56876927  0.72845837  0.40864333     0.92570
O271        O  0.48388109  0.83609214  0.43731475    -0.80970
O272        O  0.45130387  0.76185147  0.09335226    -0.74520
Al273      Al  0.52359495  0.79877939  0.49205248     1.90120
O274        O  0.41254558  0.82422243  0.49121336    -0.73590
O275        O  0.36791036  0.73982648  0.04849423    -0.73440
O276        O  0.39460162  0.74668425  0.42877644    -0.79100
O277        O  0.41861552  0.66925127  0.06295940    -0.77310
O278        O  0.47973241  0.75202255  0.48553614    -1.13440
O279        O  0.53044567  0.69310407  0.06846507    -0.72640
C280        C  0.56395668  0.72616865  0.08095642     0.98080
C281        C  0.44110095  0.85062298  0.45540356     0.94480
Al282      Al  0.42467339  0.75614277  0.00955784     1.55560
O283        O  0.56049518  0.77367584  0.42181853    -0.77260
C284        C  0.37672193  0.69626395  0.07485059     0.98650
C285        C  0.46153752  0.80536300  0.10465761     0.93530
O286        O  0.49131460  0.82860611  0.06674092    -0.82580
C287        C  0.54479354  0.00961638  0.07198793     0.02890
C288        C  0.59548259  0.99854642  0.08245603    -0.13260
C289        C  0.63031666  0.03649116  0.08534258     0.00390
C290        C  0.61544820  0.08582533  0.09077532    -0.11790
C291        C  0.56529598  0.09710017  0.08187145     0.02880
C292        C  0.53192261  0.05974620  0.06678669    -0.11210
H293        H  0.61021302  0.96105056  0.08234349     0.08480
H294        H  0.64301134  0.11544696  0.59283032     0.06010
H295        H  0.49583085  0.07142600  0.05188701     0.05850
C296        C  0.60418708  0.13140366  0.26678013     0.02890
C297        C  0.65522890  0.12772303  0.28225170    -0.13260
C298        C  0.66773547  0.13513749  0.34484273     0.00390
C299        C  0.64410808  0.17475380  0.37174915    -0.11790
C300        C  0.59210825  0.17819007  0.36226642     0.02880
C301        C  0.57196112  0.15778230  0.30812957    -0.11210
H302        H  0.68265241  0.11153178  0.25145831     0.08480
H303        H  0.66105442  0.18770684  0.91506417     0.06010
H304        H  0.53146542  0.15564608  0.30522239     0.05850
C305        C  0.24848491  0.19470153  0.34367032     0.02890
C306        C  0.19901661  0.21016300  0.36036747    -0.13260
C307        C  0.16483614  0.17700582  0.39288070     0.00390
C308        C  0.17775803  0.12805888  0.40256652    -0.11790
C309        C  0.22796215  0.11478122  0.40464082     0.02880
C310        C  0.26413224  0.14742594  0.37285379    -0.11210
H311        H  0.18769139  0.24826826  0.35003386     0.08480
H312        H  0.15012310  0.10367851  0.42515251     0.06010
H313        H  0.30312070  0.13621670  0.37059109     0.05850
C314        C  0.23309860  0.19273250  0.19913629     0.02890
C315        C  0.18442587  0.21183452  0.17864101    -0.13260
C316        C  0.14555022  0.18022673  0.15191804     0.00390
C317        C  0.15511915  0.12955998  0.14744333    -0.11790
C318        C  0.20316369  0.11043122  0.15462036     0.02880
C319        C  0.24165808  0.14130656  0.18321924    -0.11210
H320        H  0.17726384  0.25138889  0.18168512     0.08480
H321        H  0.12664464  0.10586624  0.12715668     0.06010
H322        H  0.27895839  0.12602228  0.19029633     0.05850
O323        O  0.32140032  0.97002573  0.11023242    -0.82040
C324        C  0.20295007  0.88669031  0.42607306     0.97320
O325        O  0.24796537  0.87906739  0.44848002    -0.71150
O326        O  0.28628584  0.96470698  0.42960388    -0.74750
Al327      Al  0.25934146  0.92986142  0.00026298     1.48980
C328        C  0.32730404  0.98539915  0.44122082     0.92570
O329        O  0.26631996  0.07511661  0.49848895    -0.80970
O330        O  0.18260149  0.04376166  0.07848679    -0.74520
Al331      Al  0.29240802  0.02234814  0.55687978     1.90120
O332        O  0.20528466  0.03432652  0.44823665    -0.73590
O333        O  0.16818714  0.93699558  0.08521316    -0.73440
O334        O  0.17412897  0.92576023  0.44323191    -0.79100
O335        O  0.23482149  0.89024237  0.06958094    -0.77310
O336        O  0.24893010  0.97981595  0.03564136    -1.13440
O337        O  0.32097195  0.91328211  0.03385102    -0.72640
C338        C  0.33224185  0.92685073  0.08921514     0.98080
C339        C  0.23631918  0.07120932  0.45076472     0.94480
Al340      Al  0.18624093  0.98628397  0.01598280     1.55560
O341        O  0.33430774  0.00854176  0.49166401    -0.77260
C342        C  0.19454510  0.89756396  0.09894875     0.98650
C343        C  0.21347463  0.06228133  0.11996241     0.93530
O344        O  0.25607843  0.04331336  0.12698107    -0.82580
C345        C  0.27579345  0.22686183  0.23078061     0.00330
C346        C  0.28218777  0.22899729  0.29888331     0.00320
C347        C  0.31831482  0.26965718  0.32981391     0.02890
C348        C  0.36931347  0.25945420  0.34905177    -0.13260
C349        C  0.40180312  0.29733320  0.37526558     0.00390
C350        C  0.38483162  0.34617699  0.37747072    -0.11790
C351        C  0.33389798  0.35626786  0.37255084     0.02880
C352        C  0.30093840  0.31833954  0.34715032    -0.11210
H353        H  0.38302455  0.22155744  0.34687319     0.08480
H354        H  0.40893793  0.37372703  0.39887145     0.06010
H355        H  0.26122357  0.32559773  0.34456482     0.05850
C356        C  0.30938100  0.26172391  0.18635536     0.02890
C357        C  0.29018939  0.30834905  0.16237640    -0.13260
C358        C  0.32053537  0.34297157  0.12629571     0.00390
C359        C  0.37077173  0.33158087  0.11541379    -0.11790
C360        C  0.39102218  0.28445718  0.12977906     0.02880
C361        C  0.36016559  0.24957232  0.16666673    -0.11210
H362        H  0.25124224  0.31754552  0.17110591     0.08480
H363        H  0.39243058  0.35778306  0.08653332     0.06010
H364        H  0.37517952  0.21308255  0.17904872     0.05850
O365        O  0.51619444  0.19624294  0.42124371    -0.82040
C366        C  0.60864108  0.30857000  0.10608614     0.97320
O367        O  0.61877853  0.26560983  0.09015451    -0.71150
O368        O  0.57296508  0.18350322  0.09684537    -0.74750
Al369      Al  0.59675695  0.22375863  0.52964811     1.48980
C370        C  0.54703321  0.14782024  0.07856187     0.92570
O371        O  0.44998738  0.22778125  0.08031815    -0.80970
O372        O  0.48174139  0.31339126  0.43115253    -0.74520
Al373      Al  0.48408656  0.21093389  0.00236863     1.90120
O374        O  0.46629624  0.30896823  0.06842991    -0.73590
O375        O  0.58316953  0.32646268  0.44862788    -0.73440
O376        O  0.57048472  0.33135182  0.08204482    -0.79100
O377        O  0.63065132  0.26034920  0.46357329    -0.77310
O378        O  0.53586607  0.25139592  0.51582877    -1.13440
O379        O  0.58555708  0.17489560  0.47067131    -0.72640
C380        C  0.56224192  0.18365951  0.41973386     0.98080
C381        C  0.43966731  0.27275394  0.09355165     0.94480
Al382      Al  0.52601232  0.31531893  0.50887524     1.55560
O383        O  0.51060251  0.15543352  0.04210220    -0.77260
C384        C  0.62244797  0.30108501  0.43458997     0.98650
C385        C  0.44419536  0.28527447  0.42084202     0.93530
O386        O  0.43810437  0.24867047  0.45664390    -0.82580
C387        C  0.35623765  0.83371499  0.21934429     0.02890
C388        C  0.32975828  0.86658012  0.17842662    -0.13260
C389        C  0.35515472  0.88905407  0.12812287     0.00390
C390        C  0.40000460  0.87022621  0.10784898    -0.11790
C391        C  0.42257344  0.83071243  0.13964349     0.02880
C392        C  0.39769298  0.80851386  0.19195870    -0.11210
H393        H  0.29395016  0.88192290  0.19183193     0.08480
H394        H  0.41807797  0.88802635  0.56746180     0.06010
H395        H  0.41517021  0.77688424  0.21632859     0.05850
C396        C  0.45881295  0.98666370  0.44213249     0.02890
C397        C  0.46740168  0.93574145  0.45179470    -0.13260
C398        C  0.42955251  0.90150039  0.44304430     0.00390
C399        C  0.38175508  0.91661819  0.42816518    -0.11790
C400        C  0.37254034  0.96690085  0.41633370     0.02880
C401        C  0.41141014  0.00041108  0.41758425    -0.11210
H402        H  0.50425975  0.92205402  0.46496860     0.08480
H403        H  0.35168434  0.88949483  0.92772483     0.06010
H404        H  0.40066006  0.03804256  0.40601086     0.05850
C405        C  0.50613085  0.96956249  0.07401734    -0.00400
C406        C  0.52436840  0.92211324  0.09061224    -0.12270
C407        C  0.51485020  0.90510633  0.15228356     0.01840
C408        C  0.47384255  0.92590071  0.18418171    -0.00480
C409        C  0.44083217  0.95791976  0.15044772    -0.12210
C410        C  0.45653765  0.98009924  0.09391539     0.01730
H411        H  0.55591503  0.90663688  0.06531522     0.14710
H412        H  0.40794903  0.97259898  0.17367958     0.14710
C413        C  0.42689188  0.02122913  0.06964579     0.36360
C414        C  0.55443775  0.87826434  0.18495311     0.36260
N415        N  0.40638574  0.05717794  0.05232797    -0.43980
N416        N  0.58851754  0.85981059  0.21038824    -0.43980
C417        C  0.50248394  0.02294000  0.44252711    -0.00400
C418        C  0.54753023  0.99927293  0.42492178    -0.12270
C419        C  0.54615337  0.98182244  0.36292528     0.01840
C420        C  0.50861972  0.00333832  0.32286995    -0.00480
C421        C  0.48962530  0.05088706  0.33955927    -0.12210
C422        C  0.49307645  0.06455808  0.40289553     0.01730
H423        H  0.57090766  0.97983339  0.45959199     0.14710
H424        H  0.46429342  0.07207811  0.30961761     0.14710
C425        C  0.45885362  0.10288895  0.42199374     0.36360
C426        C  0.57608982  0.93921385  0.34678308     0.36260
N427        N  0.42586495  0.12946168  0.43260612    -0.43980
N428        N  0.60060053  0.90492465  0.33575113    -0.43980
C429        C  0.44068831  0.91074461  0.29118063    -0.00400
C430        C  0.39178162  0.93080238  0.29044481    -0.12270
C431        C  0.35047007  0.89883791  0.29793348     0.01840
C432        C  0.35920081  0.84769600  0.28834229    -0.00480
C433        C  0.40324831  0.83029594  0.31792403    -0.12210
C434        C  0.44637245  0.85943570  0.30750792     0.01730
H435        H  0.38584456  0.97037812  0.28177551     0.14710
H436        H  0.40818734  0.79049872  0.32405788     0.14710
C437        C  0.49347323  0.83350343  0.30339889     0.36360
C438        C  0.30027669  0.91919481  0.29897003     0.36260
N439        N  0.52947540  0.80961334  0.30059547    -0.43980
N440        N  0.26005752  0.93559419  0.29854640    -0.43980
C441        C  0.51926825  0.01375051  0.21288768    -0.00400
C442        C  0.57046277  0.00538468  0.21308651    -0.12270
C443        C  0.60222255  0.04409760  0.22454404     0.01840
C444        C  0.58167867  0.09323713  0.22768251    -0.00480
C445        C  0.53150280  0.10145555  0.20865469    -0.12210
C446        C  0.49979747  0.06162704  0.19994056     0.01730
H447        H  0.58471588  0.96765751  0.21775779     0.14710
H448        H  0.51600510  0.13884048  0.20553384     0.14710
C449        C  0.44642078  0.07139531  0.19494741     0.36360
C450        C  0.65386851  0.02910858  0.23455385     0.36260
N451        N  0.40380332  0.07991213  0.19302273    -0.43980
N452        N  0.69478455  0.01518496  0.24094010    -0.43980
C453        C  0.87419736  0.60903268  0.26900384    -0.00400
C454        C  0.92451926  0.62478210  0.26891195    -0.12270
C455        C  0.96311703  0.59031229  0.26744304     0.01840
C456        C  0.95189412  0.53916538  0.27355551    -0.00480
C457        C  0.90356782  0.52479218  0.29301679    -0.12210
C458        C  0.86445376  0.55964899  0.29199318     0.01730
H459        H  0.93379283  0.66374555  0.26070670     0.14710
H460        H  0.89492986  0.48553351  0.29972259     0.14710
C461        C  0.81381151  0.54209162  0.30283568     0.36360
C462        C  0.01365853  0.60914040  0.25859155     0.36260
N463        N  0.77288065  0.52884929  0.31036136    -0.43980
N464        N  0.05361232  0.62522474  0.25124476    -0.43980
C465        C  0.11694170  0.36664463  0.21354549    -0.00400
C466        C  0.06711213  0.35413657  0.19706298    -0.12270
C467        C  0.02928014  0.38970705  0.20333404     0.01840
C468        C  0.04276959  0.44019376  0.20679818    -0.00460
C469        C  0.09317443  0.45320289  0.19917799    -0.12210
C470        C  0.13064005  0.41735962  0.20367981     0.01730
H471        H  0.05619730  0.31538789  0.19470964     0.14710
H472        H  0.10359219  0.49215806  0.19601631     0.14710
C473        C  0.18196169  0.43477280  0.20087298     0.36360
C474        C  0.97959099  0.37208742  0.21903761     0.36260
N475        N  0.22278433  0.44953339  0.20015050    -0.43980
N476        N  0.94083767  0.35611745  0.23358458    -0.43980
C477        C  0.96598963  0.51487109  0.16528477    -0.00400
C478        C  0.99136412  0.55411848  0.13301767    -0.12270
C479        C  0.99402048  0.55453782  0.06743265     0.01840
C480        C  0.98695866  0.50728196  0.04323749    -0.00480
C481        C  0.94208003  0.48427682  0.06445982    -0.12210
C482        C  0.93436018  0.48405456  0.13017305     0.01730
H483        H  0.01663801  0.57841704  0.15598695     0.14710
H484        H  0.92256708  0.45774584  0.03526604     0.14710
C485        C  0.89703553  0.45236110  0.15971771     0.36360
C486        C  0.02873752  0.58897189  0.03793332     0.36260
N487        N  0.86624972  0.42785347  0.18338230    -0.43980
N488        N  0.06149359  0.61261886  0.01758780    -0.43980
C489        C  0.04127759  0.47499254  0.30991667    -0.00400
C490        C  0.07272059  0.51612845  0.32052512    -0.12270
C491        C  0.06154117  0.54397702  0.37346521     0.01840
C492        C  0.01352148  0.53464834  0.40195062    -0.00480
C493        C  0.99161456  0.48639069  0.39376846    -0.12210
C494        C  0.01903815  0.45239661  0.36254801     0.01730
H495        H  0.09939533  0.53018363  0.28582585     0.14710
H496        H  0.95386861  0.47486967  0.40492976     0.14710
C497        C  0.05540836  0.43884630  0.40822095     0.36360
C498        C  0.09610553  0.58262056  0.39096757     0.36260
N499        N  0.08769271  0.44488384  0.44340913    -0.43980
N500        N  0.12437443  0.61359032  0.40346311    -0.43980
C501        C  0.97789046  0.50476933  0.73173282     0.00330
C502        C  0.01556817  0.47290013  0.74907001     0.00320
C503        C  0.81557713  0.24175376  0.81907096     0.02890
C504        C  0.86313224  0.25379576  0.84821768    -0.13260
C505        C  0.89618588  0.21542944  0.87520161     0.00390
C506        C  0.88228114  0.16589165  0.86945606    -0.11790
C507        C  0.83308775  0.15393627  0.85432418     0.02880
C508        C  0.80097689  0.19103480  0.82560536    -0.11210
H509        H  0.87381902  0.29254678  0.85120018     0.08480
H510        H  0.90574018  0.13716470  0.89154503     0.06010
H511        H  0.76303793  0.18099925  0.81258138     0.05850
C512        C  0.80607465  0.24160121  0.67706107     0.02890
C513        C  0.85868749  0.24777564  0.66597575    -0.13260
C514        C  0.88782373  0.21077029  0.63430236     0.00390
C515        C  0.86562986  0.16574493  0.61967035    -0.11790
C516        C  0.81391045  0.16174725  0.61626619     0.02880
C517        C  0.78366625  0.19928120  0.64672315    -0.11210
H518        H  0.87639635  0.28227364  0.67917021     0.08480
H519        H  0.88815725  0.13770461  0.59686477     0.06010
H520        H  0.74318883  0.19574718  0.64633633     0.05850
O521        O  0.01639660  0.32570998  0.57199890    -0.82040
C522        C  0.12477078  0.19377390  0.93646203     0.97320
O523        O  0.13515090  0.23456451  0.96618395    -0.71150
O524        O  0.05418145  0.26009793  0.91571945    -0.74750
Al525      Al  0.07762833  0.25092813  0.50158082     1.48980
C526        C  0.04633658  0.30418465  0.90171305     0.92570
O527        O  0.93799404  0.26584998  0.94945836    -0.80970
O528        O  0.96189693  0.18670750  0.57503944    -0.74520
Al529      Al  0.97935909  0.29450865  0.01124784     1.90120
O530        O  0.96972840  0.18994464  0.94077323    -0.73590
O531        O  0.06700640  0.16853660  0.58970309    -0.73440
O532        O  0.08227265  0.16697463  0.94625725    -0.79100
O533        O  0.10462973  0.24079741  0.58483658    -0.77310
O534        O  0.02191759  0.24656467  0.52130601    -1.13440
O535        O  0.08893776  0.31671021  0.52158200    -0.72640
C536        C  0.05898315  0.34150990  0.55533135     0.98080
C537        C  0.93814350  0.22449806  0.92279407     0.94480
Al538      Al  0.01862188  0.18213321  0.51419922     1.55560
O539        O  0.01681550  0.32850750  0.93792734    -0.77260
C540        C  0.10180301  0.19810086  0.61007962     0.98650
C541        C  0.93409856  0.22231314  0.59641023     0.93530
O542        O  0.93989623  0.26723514  0.57791951    -0.82580
C543        C  0.77527501  0.28033461  0.71678278     0.00330
C544        C  0.77952986  0.28049774  0.78458782     0.00320
C545        C  0.74275836  0.31329204  0.82544629     0.02890
C546        C  0.69929562  0.29207785  0.85617146    -0.13260
C547        C  0.66290437  0.32154638  0.88968296     0.00390
C548        C  0.67011800  0.37274185  0.89074827    -0.11790
C549        C  0.71518417  0.39481739  0.87100855     0.02880
C550        C  0.75096073  0.36528709  0.83658168    -0.11210
H551        H  0.69442772  0.25262361  0.85370611     0.08480
H552        H  0.64336593  0.39453382  0.91715356     0.06010
H553        H  0.78571149  0.38224615  0.82053342     0.05850
C554        C  0.73720138  0.31617479  0.68138328     0.02890
C555        C  0.68584468  0.30266083  0.67653222    -0.13260
C556        C  0.64981576  0.33293540  0.64238372     0.00390
C557        C  0.66407160  0.38006822  0.61950080    -0.11790
C558        C  0.71463782  0.39428352  0.61751881     0.02880
C559        C  0.75133391  0.36185561  0.64845799    -0.11210
H560        H  0.67474565  0.26603421  0.69427482     0.08480
H561        H  0.63685919  0.40197704  0.59219725     0.06010
H562        H  0.79060817  0.37165017  0.64598696     0.05850
O563        O  0.83545831  0.53145214  0.93280219    -0.82040
C564        C  0.69584743  0.62409865  0.57725054     0.97320
O565        O  0.73852017  0.63552523  0.55092502    -0.71150
O566        O  0.76662414  0.55125772  0.59055801    -0.74750
Al567      Al  0.75584106  0.58192757  0.00928346     1.48980
C568        C  0.81124834  0.53985332  0.59980826     0.92570
O569        O  0.76793974  0.43769193  0.54196317    -0.80970
O570        O  0.69166356  0.46878276  0.92915563    -0.74520
Al571      Al  0.80014211  0.48570089  0.48532357     1.90120
O572        O  0.69420421  0.47291735  0.56147034    -0.73590
O573        O  0.67359136  0.57441744  0.91847648    -0.73440
O574        O  0.66920210  0.58310848  0.56243427    -0.79100
O575        O  0.74385233  0.61572699  0.92916841    -0.77310
O576        O  0.75211708  0.52861191  0.98250278    -1.13440
O577        O  0.82218294  0.59833377  0.99207302    -0.72640
C578        C  0.84607099  0.57586725  0.94945899     0.98080
C579        C  0.72691207  0.43815094  0.57266217     0.94480
Al580      Al  0.68677986  0.52373041  0.99107720     1.55560
O581        O  0.83336756  0.51270096  0.55993112    -0.77260
C582        C  0.70202448  0.61165346  0.90179471     0.98650
C583        C  0.72726053  0.44317598  0.90324499     0.93530
O584        O  0.77315218  0.45328712  0.91313040    -0.82580
C585        C  0.03210597  0.47493292  0.55173007     0.02890
C586        C  0.02635709  0.42379360  0.55134436    -0.13260
C587        C  0.06715245  0.39254656  0.56245452     0.00390
C588        C  0.11480763  0.41070299  0.56935965    -0.11790
C589        C  0.12116840  0.46170501  0.57099346     0.02880
C590        C  0.08026421  0.49328636  0.56656734    -0.11210
H591        H  0.99045882  0.40785208  0.53920883     0.08480
H592        H  0.14659329  0.38541316  0.07109505     0.06010
H593        H  0.08929663  0.53157665  0.57283915     0.05850
C594        C  0.13857643  0.33834965  0.76984651     0.02890
C595        C  0.10302467  0.30914233  0.80504908    -0.13260
C596        C  0.08640510  0.32703769  0.86315669     0.00390
C597        C  0.11916586  0.35677862  0.89492132    -0.11790
C598        C  0.15850180  0.38113418  0.86572182     0.02880
C599        C  0.17364087  0.36496339  0.80660805    -0.11210
H600        H  0.08131849  0.28034436  0.78276339     0.08480
H601        H  0.11294961  0.36381862  0.44307878     0.06010
H602        H  0.20819873  0.37899780  0.78673308     0.05850
C603        C  0.19186431  0.76258317  0.83150725     0.02890
C604        C  0.21066909  0.81044838  0.85026161    -0.13260
C605        C  0.18153010  0.84474707  0.88760372     0.00390
C606        C  0.13279969  0.83247230  0.90444497    -0.11790
C607        C  0.11436582  0.78438864  0.90021684     0.02880
C608        C  0.14369283  0.74913060  0.86220068    -0.11210
H609        H  0.24855267  0.82073865  0.83693833     0.08480
H610        H  0.11176300  0.85882615  0.93233773     0.06010
H611        H  0.12925538  0.71190146  0.85657484     0.05850
C612        C  0.18593527  0.76848800  0.68655427     0.02890
C613        C  0.13303014  0.76397819  0.67895850    -0.13260
C614        C  0.10293457  0.80437890  0.65290041     0.00390
C615        C  0.12427371  0.85097985  0.64382523    -0.11790
C616        C  0.17601093  0.85577470  0.64144504     0.02880
C617        C  0.20691537  0.81437272  0.66301040    -0.11210
H618        H  0.11598888  0.72802418  0.68891729     0.08480
H619        H  0.10097563  0.88119559  0.62513776     0.06010
H620        H  0.24708451  0.81670560  0.65904198     0.05850
O621        O  0.96744673  0.68690602  0.60454057    -0.82040
C622        C  0.87980005  0.81098345  0.92432141     0.97320
O623        O  0.86587785  0.77230758  0.95877127    -0.71150
O624        O  0.94758271  0.73694867  0.92970435    -0.74750
Al625      Al  0.91969812  0.75670870  0.50615115     1.48980
C626        C  0.96892341  0.69604084  0.93311041     0.92570
O627        O  0.06939302  0.74342545  0.99022642    -0.80970
O628        O  0.03584846  0.82819040  0.57754683    -0.74520
Al629      Al  0.01613238  0.71826940  0.04881809     1.90120
O630        O  0.03249723  0.80920349  0.94481353    -0.73590
O631        O  0.92835755  0.84858743  0.57581074    -0.73440
O632        O  0.92258021  0.83644387  0.93499014    -0.79100
O633        O  0.88856000  0.77674421  0.58088435    -0.77310
O634        O  0.97386616  0.76435705  0.53351208    -1.13440
O635        O  0.90394247  0.69168415  0.53507967    -0.72640
C636        C  0.92300583  0.67554431  0.58720598     0.98080
C637        C  0.06827186  0.77639675  0.94504907     0.94480
Al638      Al  0.98098681  0.82677001  0.51106488     1.55560
O639        O  0.99495643  0.68229169  0.98105873    -0.77260
C640        C  0.89108823  0.82145601  0.59632254     0.98650
C641        C  0.05579260  0.79505801  0.61646692     0.93530
O642        O  0.04114584  0.75070636  0.61795597    -0.82580
C643        C  0.21913319  0.72600816  0.71735903     0.00330
C644        C  0.22517014  0.72669052  0.78613671     0.00320
C645        C  0.25198059  0.69064867  0.67065717     0.02890
C646        C  0.23453523  0.64576518  0.63690088    -0.13260
C647        C  0.26838365  0.61559021  0.59695591     0.00390
C648        C  0.31823889  0.63019018  0.59378512    -0.11790
C649        C  0.33411699  0.67585914  0.61383293     0.02880
C650        C  0.30190700  0.70552609  0.65300486    -0.11210
H651        H  0.19577719  0.63441378  0.64202314     0.08480
H652        H  0.34408583  0.60919418  0.56469175     0.06010
H653        H  0.31526410  0.74139519  0.66792899     0.05850
C654        C  0.26899915  0.69492098  0.81729146     0.02890
C655        C  0.31551418  0.71641335  0.83838877    -0.13260
C656        C  0.35649980  0.68612942  0.86326480     0.00390
C657        C  0.35043451  0.63463401  0.86695107    -0.11790
C658        C  0.30417316  0.61282297  0.85653648     0.02880
C659        C  0.26422271  0.64242607  0.82862379    -0.11210
H660        H  0.31932189  0.75646920  0.83690483     0.08480
H661        H  0.38000410  0.61154823  0.88771393     0.06010
H662        H  0.22835149  0.62517123  0.81910730     0.05850
O663        O  0.19177076  0.46430541  0.88213819    -0.82040
C664        C  0.29908679  0.38497412  0.58563598     0.97320
O665        O  0.25455267  0.37733753  0.56213800    -0.71150
O666        O  0.20797891  0.46144490  0.56808582    -0.74750
Al667      Al  0.24407562  0.42787334  0.00596464     1.48980
C668        C  0.16735677  0.48050527  0.54873124     0.92570
O669        O  0.23232656  0.57264285  0.50174289    -0.80970
O670        O  0.32358694  0.54458431  0.93300173    -0.74520
Al671      Al  0.21281899  0.51876108  0.43873260     1.90120
O672        O  0.29235388  0.53346127  0.55934567    -0.73590
O673        O  0.34043091  0.43786691  0.92716743    -0.73440
O674        O  0.32739109  0.42469919  0.56872433    -0.79100
O675        O  0.27572543  0.38895761  0.94373668    -0.77310
O676        O  0.25569187  0.47797720  0.96899301    -1.13440
O677        O  0.18866097  0.40749555  0.96204714    -0.72640
C678        C  0.18266910  0.41956796  0.90343009     0.98080
C679        C  0.26056148  0.57015512  0.55260536     0.94480
Al680      Al  0.31710231  0.48595729  0.99445209     1.55560
O681        O  0.16378593  0.50292915  0.49572421    -0.77260
C682        C  0.31554670  0.39781668  0.91411135     0.98650
C683        C  0.29532100  0.56258206  0.88778115     0.93530
O684        O  0.25531279  0.54115105  0.87455433    -0.82580
C685        C  0.83983426  0.63416744  0.72081117     0.02890
C686        C  0.81256334  0.59940806  0.68669601    -0.13260
C687        C  0.83840549  0.57406075  0.63881967     0.00390
C688        C  0.88019740  0.59739889  0.61143681    -0.11790
C689        C  0.89128868  0.64589892  0.62835334     0.02880
C690        C  0.86472688  0.66752774  0.67866430    -0.11210
H691        H  0.77568831  0.58767777  0.70258466     0.08480
H692        H  0.89792922  0.58218432  0.06998028     0.06010
H693        H  0.87465545  0.70449265  0.69376403     0.05850
C694        C  0.97881197  0.57478399  0.91311605     0.02890
C695        C  0.93182735  0.56353387  0.93663723    -0.13260
C696        C  0.89275862  0.59574518  0.92870728     0.00390
C697        C  0.90118305  0.64429916  0.90763792    -0.11790
C698        C  0.95109653  0.65812142  0.89522202     0.02880
C699        C  0.98773968  0.62253933  0.89009191    -0.11210
H700        H  0.92360394  0.52820293  0.95869926     0.08480
H701        H  0.87147923  0.67180799  0.41012515     0.06010
H702        H  0.02434240  0.63549788  0.87616128     0.05850
C703        C  0.47782755  0.93700662  0.75114153     0.00330
C704        C  0.49548230  0.98336198  0.76204326     0.00320
C705        C  0.76554802  0.81688271  0.80846563     0.02890
C706        C  0.80688818  0.79645374  0.84450965    -0.13260
C707        C  0.84422717  0.82774638  0.87293953     0.00390
C708        C  0.84208046  0.87866232  0.86289426    -0.11790
C709        C  0.79775478  0.90086642  0.84328245     0.02880
C710        C  0.76026648  0.87041451  0.81210479    -0.11210
H711        H  0.80998344  0.75643078  0.85091608     0.08480
H712        H  0.87096402  0.90156209  0.88382394     0.06010
H713        H  0.72607368  0.88772114  0.79428957     0.05850
C714        C  0.75661230  0.82114780  0.66225742     0.02890
C715        C  0.80932881  0.81155357  0.65981441    -0.13260
C716        C  0.84333269  0.84201126  0.62324505     0.00390
C717        C  0.82465118  0.88403756  0.59093004    -0.11790
C718        C  0.77310338  0.89449066  0.58554038     0.02880
C719        C  0.73863423  0.86250095  0.62158979    -0.11210
H720        H  0.82364254  0.77826063  0.68377539     0.08480
H721        H  0.85076737  0.90576420  0.56190656     0.06010
H722        H  0.69876362  0.87015630  0.61903384     0.05850
O723        O  0.66235661  0.01046091  0.49260289    -0.82040
C724        C  0.81187196  0.11269339  0.89420634     0.97320
O725        O  0.77051353  0.12170953  0.92000665    -0.71150
O726        O  0.68081792  0.10270917  0.94901623    -0.74750
Al727      Al  0.74158357  0.08459480  0.48770365     1.48980
C728        C  0.67694037  0.09243199  0.89018041     0.92570
O729        O  0.74549383  0.96973079  0.86389443    -0.80970
O730        O  0.79244139  0.97647565  0.54400650    -0.74520
Al731      Al  0.70694836  0.99318153  0.43062001     1.90120
O732        O  0.81759275  0.96884545  0.91606614    -0.73590
O733        O  0.82312818  0.08414826  0.55353031    -0.73440
O734        O  0.83675604  0.07335616  0.91130444    -0.79100
O735        O  0.75290071  0.13539371  0.54005452    -0.77310
O736        O  0.75175699  0.03359984  0.45466019    -1.13440
O737        O  0.71195700  0.05152537  0.55702976    -0.72640
C738        C  0.67172785  0.02944035  0.54580785     0.98080
C739        C  0.78764669  0.95047026  0.87355263     0.94480
Al740      Al  0.81366280  0.02502001  0.47859525     1.55560
O741        O  0.68381316  0.04743193  0.87226659    -0.77260
C742        C  0.79504813  0.12429717  0.56876195     0.98650
C743        C  0.76212285  0.93932060  0.53989356     0.93530
O744        O  0.73003914  0.93812550  0.49317371    -0.82580
C745        C  0.72717901  0.78210283  0.77242848     0.00330
C746        C  0.72227246  0.78506163  0.70427796     0.00320
C747        C  0.68882230  0.74553968  0.66994352     0.02890
C748        C  0.70852547  0.69877115  0.65053794    -0.13260
C749        C  0.67685166  0.66148778  0.62281413     0.00390
C750        C  0.62547852  0.66808354  0.62263661    -0.11790
C751        C  0.60661655  0.71593333  0.62574445     0.02880
C752        C  0.63789367  0.75459502  0.65105342    -0.11210
H753        H  0.74861610  0.69244066  0.65379102     0.08480
H754        H  0.60216604  0.63940631  0.60232272     0.06010
H755        H  0.62376470  0.79203007  0.65160094     0.05850
C756        C  0.69517631  0.74229132  0.81242483     0.02890
C757        C  0.71389250  0.69330361  0.83036909    -0.13260
C758        C  0.68276057  0.65617083  0.86232277     0.00390
C759        C  0.63275527  0.66805239  0.87434347    -0.11790
C760        C  0.61475569  0.71679465  0.86839299     0.02880
C761        C  0.64562457  0.75356822  0.83556782    -0.11210
H762        H  0.75271925  0.68435491  0.82064297     0.08480
H763        H  0.60986884  0.64054045  0.89934888     0.06010
H764        H  0.63168357  0.79128026  0.82943680     0.05850
O765        O  0.56651138  0.76629269  0.54916678    -0.82040
C766        C  0.39941763  0.70503879  0.90320213     0.97320
O767        O  0.43635210  0.67639913  0.92097088    -0.71150
O768        O  0.54197743  0.69276798  0.93455057    -0.74750
Al769      Al  0.48339743  0.68720163  0.49512759     1.48980
C770        C  0.56877006  0.72845939  0.90864376     0.92570
O771        O  0.48388308  0.83609374  0.93731659    -0.80970
O772        O  0.45130383  0.76185195  0.59335240    -0.74520
Al773      Al  0.52359586  0.79877990  0.99205418     1.90120
O774        O  0.41254686  0.82422397  0.99121355    -0.73590
O775        O  0.36791027  0.73982585  0.54849560    -0.73440
O776        O  0.39460253  0.74668603  0.92877552    -0.79100
O777        O  0.41861581  0.66925096  0.56296140    -0.77310
O778        O  0.47973305  0.75202335  0.98553615    -1.13440
O779        O  0.53044562  0.69310450  0.56846543    -0.72640
C780        C  0.56395679  0.72616917  0.58095568     0.98080
C781        C  0.44110293  0.85062487  0.95540489     0.94480
Al782      Al  0.42467288  0.75614189  0.50955839     1.55560
O783        O  0.56049668  0.77367678  0.92182024    -0.77260
C784        C  0.37672230  0.69626374  0.57485282     0.98650
C785        C  0.46153790  0.80536364  0.60465669     0.93530
O786        O  0.49131445  0.82860629  0.56673894    -0.82580
C787        C  0.54479545  0.00961378  0.57198625     0.02890
C788        C  0.59548496  0.99854539  0.58245267    -0.13260
C789        C  0.63031787  0.03649114  0.58533830     0.00390
C790        C  0.61544819  0.08582490  0.59077056    -0.11790
C791        C  0.56529558  0.09709829  0.58186798     0.02880
C792        C  0.53192289  0.05974335  0.56678504    -0.11210
H793        H  0.61021654  0.96105000  0.58233968     0.08480
H794        H  0.64301207  0.11544666  0.09283610     0.06010
H795        H  0.49583027  0.07142247  0.55188797     0.05850
C796        C  0.60419061  0.13140376  0.76678138     0.02890
C797        C  0.65523212  0.12772446  0.78225457    -0.13260
C798        C  0.66773688  0.13513779  0.84484627     0.00390
C799        C  0.64410894  0.17475401  0.87175180    -0.11790
C800        C  0.59210905  0.17818938  0.86226832     0.02880
C801        C  0.57196303  0.15778086  0.80813095    -0.11210
H802        H  0.68265722  0.11153573  0.75146131     0.08480
H803        H  0.66105384  0.18770645  0.41506146     0.06010
H804        H  0.53146745  0.15564354  0.80522279     0.05850
C805        C  0.24848731  0.19470046  0.84367115     0.02890
C806        C  0.19901878  0.21016223  0.86036604    -0.13260
C807        C  0.16483764  0.17700583  0.89287912     0.00390
C808        C  0.17775961  0.12805927  0.90256819    -0.11790
C809        C  0.22796369  0.11478145  0.90464335     0.02880
C810        C  0.26413422  0.14742538  0.87285609    -0.11210
H811        H  0.18769401  0.24826730  0.85003089     0.08480
H812        H  0.15012443  0.10367953  0.92515479     0.06010
H813        H  0.30312264  0.13621588  0.87059420     0.05850
C814        C  0.23310041  0.19272944  0.69913822     0.02890
C815        C  0.18442646  0.21183031  0.67864628    -0.13260
C816        C  0.14555052  0.18022168  0.65192525     0.00390
C817        C  0.15511993  0.12955528  0.64745029    -0.11790
C818        C  0.20316537  0.11042823  0.65462237     0.02880
C819        C  0.24166041  0.14130405  0.68321919    -0.11210
H820        H  0.17726382  0.25138454  0.68169081     0.08480
H821        H  0.12664501  0.10586098  0.62716555     0.06010
H822        H  0.27896143  0.12602066  0.69029303     0.05850
O823        O  0.32140181  0.97002662  0.61022921    -0.82040
C824        C  0.20295035  0.88669230  0.92607268     0.97320
O825        O  0.24796591  0.87906941  0.94847884    -0.71150
O826        O  0.28628735  0.96470921  0.92960575    -0.74750
Al827      Al  0.25934112  0.92986029  0.50026264     1.48980
C828        C  0.32730555  0.98540088  0.94122434     0.92570
O829        O  0.26632061  0.07511692  0.99849198    -0.80970
O830        O  0.18260223  0.04376082  0.57848612    -0.74520
Al831      Al  0.29240768  0.02234828  0.05688329     1.90120
O832        O  0.20528535  0.03432722  0.94823868    -0.73590
O833        O  0.16818713  0.93699545  0.58521234    -0.73440
O834        O  0.17412914  0.92576172  0.94323267    -0.79100
O835        O  0.23482195  0.89024248  0.56958209    -0.77310
O836        O  0.24893019  0.97981543  0.53563965    -1.13440
O837        O  0.32097213  0.91328152  0.53384989    -0.72640
C838        C  0.33224277  0.92685118  0.58921333     0.98080
C839        C  0.23632012  0.07120976  0.95076735     0.94480
Al840      Al  0.18624090  0.98628328  0.51598157     1.55560
O841        O  0.33430874  0.00854218  0.99166864    -0.77260
C842        C  0.19454521  0.89756422  0.59894908     0.98650
C843        C  0.21347603  0.06227993  0.61996152     0.93530
O844        O  0.25608024  0.04331278  0.62697814    -0.82580
C845        C  0.27579547  0.22685931  0.73078141     0.00330
C846        C  0.28219034  0.22899528  0.79888377     0.00320
C847        C  0.31831718  0.26965575  0.82981327     0.02890
C848        C  0.36931553  0.25945337  0.84905290    -0.13260
C849        C  0.40180465  0.29733321  0.87526596     0.00390
C850        C  0.38483293  0.34617705  0.87746859    -0.11790
C851        C  0.33389937  0.35626768  0.87254611     0.02880
C852        C  0.30094049  0.31833854  0.84714654    -0.11210
H853        H  0.38302674  0.22155656  0.84687628     0.08480
H854        H  0.40893864  0.37372770  0.89886910     0.06010
H855        H  0.26122567  0.32559624  0.84456023     0.05850
C856        C  0.30938271  0.26172160  0.68635628     0.02890
C857        C  0.29019213  0.30834825  0.66238129    -0.13260
C858        C  0.32053853  0.34297148  0.62630228     0.00390
C859        C  0.37077440  0.33158008  0.61541869    -0.11790
C860        C  0.39102351  0.28445517  0.62977982     0.02880
C861        C  0.36016659  0.24956955  0.66666568    -0.11210
H862        H  0.25124533  0.31754527  0.67111234     0.08480
H863        H  0.39243358  0.35778297  0.58653971     0.06010
H864        H  0.37517975  0.21307894  0.67904489     0.05850
O865        O  0.51619515  0.19624362  0.92124547    -0.82040
C866        C  0.60863878  0.30856826  0.60608624     0.97320
O867        O  0.61877573  0.26560745  0.59015665    -0.71150
O868        O  0.57296245  0.18350110  0.59684379    -0.74750
Al869      Al  0.59675813  0.22376016  0.02964808     1.48980
C870        C  0.54703167  0.14781790  0.57855882     0.92570
O871        O  0.44998711  0.22777934  0.58031627    -0.80970
O872        O  0.48174209  0.31339283  0.93115442    -0.74520
Al873      Al  0.48408582  0.21093250  0.50236649     1.90120
O874        O  0.46629602  0.30896645  0.56842821    -0.73590
O875        O  0.58317030  0.32646499  0.94863013    -0.73440
O876        O  0.57048375  0.33135051  0.58204234    -0.79100
O877        O  0.63065076  0.26035012  0.96357146    -0.77310
O878        O  0.53586686  0.25139745  0.01583027    -1.13440
O879        O  0.58555729  0.17489587  0.97067316    -0.72640
C880        C  0.56224235  0.18365935  0.91973557     0.98080
C881        C  0.43966749  0.27275202  0.59355038     0.94480
Al882      Al  0.52601301  0.31532061  0.00887731     1.55560
O883        O  0.51060140  0.15543102  0.54209848    -0.77260
C884        C  0.62244792  0.30108683  0.93459015     0.98650
C885        C  0.44419648  0.28527554  0.92084348     0.93530
O886        O  0.43810554  0.24867157  0.95664536    -0.82580
C887        C  0.35624056  0.83371829  0.71934566     0.02890
C888        C  0.32976065  0.86658310  0.67842806    -0.13260
C889        C  0.35515603  0.88905543  0.62812213     0.00390
C890        C  0.40000552  0.87022707  0.60784783    -0.11790
C891        C  0.42257463  0.83071378  0.63964290     0.02880
C892        C  0.39769509  0.80851634  0.69195945    -0.11210
H893        H  0.29395279  0.88192617  0.69183397     0.08480
H894        H  0.41807756  0.88802628  0.06746381     0.06010
H895        H  0.41517251  0.77688689  0.71632943     0.05850
C896        C  0.45881543  0.98666610  0.94213227     0.02890
C897        C  0.46740450  0.93574361  0.95179302    -0.13260
C898        C  0.42955477  0.90150255  0.94304533     0.00390
C899        C  0.38175710  0.91662056  0.92816777    -0.11790
C900        C  0.37254210  0.96690328  0.91633709     0.02880
C901        C  0.41141172  0.00041384  0.91758762    -0.11210
H902        H  0.50426289  0.92205608  0.96496522     0.08480
H903        H  0.35168230  0.88949249  0.42772213     0.06010
H904        H  0.40066111  0.03804562  0.90601735     0.05850
C905        C  0.50613424  0.96955852  0.57401791    -0.00400
C906        C  0.52437362  0.92211008  0.59061420    -0.12270
C907        C  0.51485657  0.90510383  0.65228617     0.01840
C908        C  0.47384907  0.92589808  0.68418465    -0.00480
C909        C  0.44083765  0.95791602  0.65045100    -0.12210
C910        C  0.45654124  0.98009429  0.59391722     0.01730
H911        H  0.55592018  0.90663391  0.56531686     0.14710
H912        H  0.40795429  0.97259474  0.67368292     0.14710
C913        C  0.42689362  0.02122242  0.56964677     0.36360
C914        C  0.55444514  0.87826371  0.68495641     0.36260
N915        N  0.40638632  0.05717040  0.55232853    -0.43980
N916        N  0.58852512  0.85981171  0.71039326    -0.43980
C917        C  0.50248602  0.02294296  0.94252660    -0.00400
C918        C  0.54753326  0.99927613  0.92492417    -0.12270
C919        C  0.54615920  0.98182477  0.86292800     0.01840
C920        C  0.50862603  0.00333846  0.82287034    -0.00480
C921        C  0.48962875  0.05088651  0.83955727    -0.12210
C922        C  0.49307880  0.06455971  0.90289258     0.01730
H923        H  0.57090960  0.97983709  0.95959589     0.14710
H924        H  0.46429645  0.07207577  0.80961429     0.14710
C925        C  0.45885639  0.10289202  0.92198745     0.36360
C926        C  0.57609823  0.93921744  0.84678758     0.36260
N927        N  0.42586839  0.12946640  0.93259668    -0.43980
N928        N  0.60061077  0.90492935  0.83575637    -0.43980
C929        C  0.44069502  0.91074521  0.79118389    -0.00400
C930        C  0.39178916  0.93080488  0.79044826    -0.12270
C931        C  0.35047622  0.89884188  0.79793442     0.01840
C932        C  0.35920504  0.84769963  0.78834337    -0.00480
C933        C  0.40325185  0.83029766  0.81792507    -0.12210
C934        C  0.44637709  0.85943597  0.80751006     0.01730
H935        H  0.38585375  0.97038097  0.78177984     0.14710
H936        H  0.40818945  0.79050021  0.82405799     0.14710
C937        C  0.49347707  0.83350232  0.80340042     0.36360
C938        C  0.30028358  0.91920066  0.79897035     0.36260
N939        N  0.52947883  0.80961175  0.80059587    -0.43980
N940        N  0.26006495  0.93560136  0.79854640    -0.43980
C941        C  0.51927695  0.01374823  0.71288746    -0.00400
C942        C  0.57047185  0.00538408  0.71308661    -0.12270
C943        C  0.60223056  0.04409857  0.72454181     0.01840
C944        C  0.58168471  0.09323730  0.72768119    -0.00480
C945        C  0.53150870  0.10145384  0.70865361    -0.12210
C946        C  0.49980486  0.06162420  0.69993938     0.01730
H947        H  0.58472630  0.96765744  0.71775869     0.14710
H948        H  0.51600965  0.13883824  0.70553310     0.14710
C949        C  0.44642801  0.07139108  0.69494494     0.36360
C950        C  0.65387775  0.02911240  0.73454829     0.36260
N951        N  0.40381042  0.07990713  0.69301984    -0.43980
N952        N  0.69479501  0.01519178  0.74093248    -0.43980
C953        C  0.87418241  0.60904005  0.76900540    -0.00400
C954        C  0.92450539  0.62478556  0.76891374    -0.12270
C955        C  0.96310019  0.59031272  0.76744239     0.01840
C956        C  0.95187277  0.53916671  0.77355341    -0.00480
C957        C  0.90354597  0.52479735  0.79301746    -0.12210
C958        C  0.86443513  0.55965786  0.79199711     0.01730
H959        H  0.93378177  0.66374831  0.76070806     0.14710
H960        H  0.89490458  0.48553936  0.79972259     0.14710
C961        C  0.81379132  0.54210584  0.80284215     0.36360
C962        C  0.01364266  0.60913758  0.75858775     0.36260
N963        N  0.77285934  0.52886779  0.81037023    -0.43980
N964        N  0.05359682  0.62521990  0.75123650    -0.43980
C965        C  0.11692142  0.36664673  0.71356277    -0.00400
C966        C  0.06709099  0.35413205  0.69708953    -0.12270
C967        C  0.02925636  0.38970040  0.70335115     0.01840
C968        C  0.04274138  0.44018885  0.70680097    -0.00460
C969        C  0.09314450  0.45320117  0.69917618    -0.12210
C970        C  0.13061410  0.41736343  0.70369620     0.01730
H971        H  0.05617808  0.31538235  0.69474572     0.14710
H972        H  0.10355794  0.49215717  0.69600486     0.14710
C973        C  0.18193314  0.43478515  0.70089529     0.36360
C974        C  0.97957004  0.37207866  0.71906605     0.36260
N975        N  0.22275293  0.44955351  0.70017530    -0.43980
N976        N  0.94081958  0.35610747  0.73362355    -0.43980
C977        C  0.96596678  0.51486704  0.66528053    -0.00400
C978        C  0.99134044  0.55411480  0.63301339    -0.12270
C979        C  0.99400961  0.55452770  0.56742998     0.01840
C980        C  0.98695475  0.50727012  0.54323764    -0.00480
C981        C  0.94207534  0.48426243  0.56445361    -0.12210
C982        C  0.93434781  0.48404275  0.63016558     0.01730
H983        H  0.01660300  0.57842223  0.65598305     0.14710
H984        H  0.92256856  0.45772781  0.53525876     0.14710
C985        C  0.89702675  0.45234365  0.65970732     0.36360
C986        C  0.02872718  0.58896411  0.53793684     0.36260
N987        N  0.86624436  0.42783127  0.68337092    -0.43980
N988        N  0.06148417  0.61261321  0.51759816    -0.43980
C989        C  0.04125642  0.47499737  0.80991305    -0.00400
C990        C  0.07270196  0.51613376  0.82051100    -0.12270
C991        C  0.06153174  0.54398348  0.87345311     0.01840
C992        C  0.01351550  0.53465717  0.90194863    -0.00480
C993        C  0.99160557  0.48639967  0.89377262    -0.12210
C994        C  0.01902553  0.45240337  0.86255143     0.01730
H995        H  0.09937233  0.53018760  0.78580562     0.14710
H996        H  0.95385840  0.47488209  0.90493322     0.14710
C997        C  0.05540378  0.43885885  0.90821722     0.36360
C998        C  0.09610091  0.58262473  0.89094890     0.36260
N999        N  0.08769391  0.44490309  0.94339527    -0.43980
N1000       N  0.12437368  0.61359236  0.90343935    -0.43980
loop_ 
_geom_bond_atom_site_label_1 
_geom_bond_atom_site_label_2 
_geom_bond_distance 
_geom_bond_site_symmetry_2 
_ccdc_geom_bond_type 
C1            C2   1.360   1_655  D
C1          C456   1.465       .  S
C1          C477   1.446       .  S
C2          C468   1.457       .  S
C2          C489   1.448       .  S
C3           C44   1.574       .  S
C3            C4   1.445       .  A
C3            C8   1.420       .  A
C4            C5   1.455       .  A
C4            H9   1.083       .  S
C5            C6   1.390       .  A
C5           C37   1.520       .  S
C6            C7   1.387       .  A
C6           H10   1.085       .  S
C7            C8   1.431       .  A
C7          C224   1.483       .  S
C8           H11   1.082       .  S
C12          C43   1.580       .  S
C12          C13   1.430       .  A
C12          C17   1.446       .  A
C13          C14   1.437       .  A
C13          H18   1.082       .  S
C14          C15   1.388       .  A
C14          C41   1.497       .  S
C15          C16   1.384       .  A
C15          H19   1.084       .  S
C16          C17   1.452       .  A
C16         C242   1.519       .  S
C17          H20   1.082       .  S
O21          C36   1.259       .  A
O21        Al529   1.830   1_455  S
C22         C307   1.484       .  S
C22          O32   1.355       .  A
C22          O23   1.304       .  A
O23        Al525   1.764       .  S
O24          C26   1.229       .  A
O24        Al525   1.912       .  S
Al25         O33   1.898       .  S
Al25         O35   1.851       .  S
Al25        O523   1.764   1_554  S
Al25        O524   1.912   1_554  S
Al25         O34   1.545       .  S
C26          C96   1.466       .  S
C26          O39   1.284       .  A
O27          C37   1.256       .  A
O27         Al29   1.879       .  S
O28          C41   1.298       .  A
O28         Al38   1.986   1_655  S
Al29         O39   2.031   1_655  S
Al29        O521   1.830   1_655  S
Al29        O542   1.884       .  S
Al29        O534   1.722   1_655  S
O30          C37   1.299       .  A
O30        Al538   2.019   1_655  S
O31          C40   1.300       .  A
O31         Al38   2.062       .  S
O32        Al538   2.261       .  S
O33          C40   1.252       .  A
O34         Al38   1.743       .  S
O34        Al529   1.722   1_455  S
O35          C36   1.268       .  A
C36          C87   1.400       .  S
Al38        O530   2.019   1_454  S
Al38        O532   2.261   1_554  S
C40         C316   1.525       .  S
C41          O42   1.267       .  A
O42        Al529   1.884       .  S
C43          C44   1.425       .  D
C43          C54   1.568       .  S
C44          C45   1.585       .  S
C45          C46   1.437       .  A
C45          C50   1.439       .  A
C46          C47   1.446       .  A
C46          H51   1.070       .  S
C47          C48   1.389       .  A
C47         C384   1.526       .  S
C48          C49   1.398       .  A
C48          H52   1.084       .  S
C49          C50   1.446       .  A
C49          C83   1.514       .  S
C50          H53   1.083       .  S
C54          C55   1.420       .  A
C54          C59   1.442       .  A
C55          C56   1.434       .  A
C55          H60   1.084       .  S
C56          C57   1.395       .  A
C56         C366   1.495       .  S
C57          C58   1.401       .  A
C57          H61   1.085       .  S
C58          C59   1.448       .  A
C58          C79   1.524       .  S
C59          H62   1.080       .  S
O63          C78   1.283       .  A
O63        Al571   1.882       .  S
C64         C249   1.493       .  S
C64          O74   1.353       .  A
C64          O65   1.298       .  A
O65        Al567   1.765       .  S
O66          C68   1.240       .  A
O66        Al567   1.893       .  S
Al67         O75   1.913       .  S
Al67         O77   1.856       .  S
Al67        O565   1.765       .  S
Al67        O566   1.893       .  S
Al67         O76   1.555       .  S
C68         C187   1.440       .  S
C68          O81   1.270       .  A
O69          C79   1.270       .  A
O69         Al71   1.932   1_554  S
O70          C83   1.299       .  A
O70         Al80   1.996       .  S
Al71         O81   1.952   1_556  S
Al71        O563   1.882       .  S
Al71        O584   1.905       .  S
Al71        O576   1.720       .  S
O72          C79   1.292       .  A
O72        Al580   1.991   1_554  S
O73          C82   1.296       .  A
O73         Al80   2.043       .  S
O74        Al580   2.265   1_554  S
O75          C82   1.258       .  A
O76         Al80   1.755       .  S
O76        Al571   1.720       .  S
O77          C78   1.264       .  A
C78         C196   1.419       .  S
Al80        O572   1.991       .  S
Al80        O574   2.265       .  S
C82         C258   1.522       .  S
C83          O84   1.270       .  A
O84        Al571   1.905       .  S
C85          C86   1.382       .  A
C85          C90   1.412       .  A
C85         C480   1.489   1_455  S
C86          C87   1.387       .  A
C86          H91   1.081   1_455  S
C87          C88   1.369       .  A
C88          C89   1.381       .  A
C88         H592   1.084       .  S
C89          C90   1.381       .  A
C89         C168   1.407       .  S
C90          H93   1.068       .  S
H92         C588   1.084       .  S
C94          C95   1.425       .  A
C94          C99   1.416       .  A
C94         C465   1.499       .  S
C95          C96   1.394       .  A
C95         H100   1.082       .  S
C96          C97   1.367       .  A
C97          C98   1.373       .  A
C97         H601   1.045       .  S
C98          C99   1.385       .  A
C98         C178   1.465       .  S
C99         H102   1.076       .  S
H101        C597   1.045       .  S
C103        C144   1.635       .  S
C103        C104   1.444       .  A
C103        C108   1.478       .  A
C104        C105   1.450       .  A
C104        H109   1.082       .  S
C105        C106   1.384       .  A
C105        C324   1.514       .  S
C106        C107   1.387       .  A
C106        H110   1.086       .  S
C107        C108   1.478       .  A
C107        C137   1.560       .  S
C108        H111   1.081       .  S
C112        C143   1.566       .  S
C112        C113   1.423       .  A
C112        C117   1.430       .  A
C113        C114   1.442       .  A
C113        H118   1.083       .  S
C114        C115   1.384       .  A
C114        C141   1.493       .  S
C115        C116   1.385       .  A
C115        H119   1.085       .  S
C116        C117   1.444       .  A
C116        C342   1.499       .  S
C117        H120   1.075       .  S
O121        C136   1.277       .  A
O121       Al629   1.927   1_655  S
C122        C207   1.492       .  S
C122        O132   1.351       .  A
C122        O123   1.304       .  A
O123       Al625   1.784       .  S
O124        C126   1.236       .  A
O124       Al625   1.858       .  S
Al125       O133   1.866       .  S
Al125       O135   1.881       .  S
Al125       O623   1.784   1_554  S
Al125       O624   1.858   1_554  S
Al125       O134   1.567       .  S
C126        C198   1.391       .  S
C126        O139   1.266       .  A
O127        C137   1.279       .  A
O127       Al129   1.986       .  S
O128        C141   1.302       .  A
O128       Al138   2.017   1_455  S
Al129       O139   1.827   1_455  S
Al129       O621   1.927   1_455  S
Al129       O642   1.835       .  S
Al129       O634   1.695   1_455  S
O130        C137   1.296       .  A
O130       Al638   2.019   1_455  S
O131        C140   1.300       .  A
O131       Al138   2.050       .  S
O132       Al638   2.234       .  S
O133        C140   1.254       .  A
O134       Al138   1.739       .  S
O134       Al629   1.695   1_655  S
O135        C136   1.269       .  A
C136        C189   1.435       .  S
Al138       O630   2.019   1_654  S
Al138       O632   2.234   1_554  S
C140        C216   1.503       .  S
C141        O142   1.253       .  A
O142       Al629   1.835       .  S
C143        C144   1.451       .  D
C143        C145   1.636       .  S
C144        C154   1.574       .  S
C145        C146   1.488       .  A
C145        C150   1.436       .  A
C146        C147   1.486       .  A
C146        H151   1.082       .  S
C147        C148   1.386       .  A
C147        C179   1.567       .  S
C148        C149   1.374       .  A
C148        H152   1.088       .  S
C149        C150   1.443       .  A
C149        C284   1.496       .  S
C150        H153   1.081       .  S
C154        C155   1.441       .  A
C154        C159   1.429       .  A
C155        C156   1.447       .  A
C155        H160   1.080       .  S
C156        C157   1.392       .  A
C156        C266   1.511       .  S
C157        C158   1.384       .  A
C157        H161   1.084       .  S
C158        C159   1.440       .  A
C158        C183   1.503       .  S
C159        H162   1.083       .  S
O163        C178   1.294       .  A
O163       Al671   1.988       .  S
C164        C358   1.506       .  S
C164        O174   1.347       .  A
C164        O165   1.302       .  A
O165       Al667   1.793       .  S
O166        C168   1.257       .  A
O166       Al667   1.871       .  S
Al167       O175   1.892       .  S
Al167       O177   1.829       .  S
Al167       O665   1.793       .  S
Al167       O666   1.871       .  S
Al167       O176   1.566       .  S
C168        O181   1.252   1_554  A
O169        C179   1.303       .  A
O169       Al171   2.052   1_554  S
O170        C183   1.292       .  A
O170       Al180   2.015       .  S
Al171       O181   1.816       .  S
Al171       O663   1.988       .  S
Al171       O684   1.849       .  S
Al171       O676   1.691       .  S
O172        C179   1.302       .  A
O172       Al680   2.002   1_554  S
O173        C182   1.299       .  A
O173       Al180   2.036       .  S
O174       Al680   2.249   1_554  S
O175        C182   1.251       .  A
O176       Al180   1.734       .  S
O176       Al671   1.691       .  S
O177        C178   1.272       .  A
Al180       O672   2.002       .  S
Al180       O674   2.249       .  S
C182        C351   1.515       .  S
C183        O184   1.246       .  A
O184       Al671   1.849       .  S
C185        C186   1.395       .  A
C185        C190   1.409       .  A
C185        C453   1.506       .  S
C186        C187   1.408       .  A
C186        H191   1.083       .  S
C187        C188   1.396       .  A
C188        C189   1.391       .  A
C188        H692   1.080       .  S
C189        C190   1.409       .  A
C190        H193   1.083       .  S
H192        C688   1.080       .  S
C194        C195   1.377       .  A
C194        C199   1.379       .  A
C194        C492   1.443   1_655  S
C195        C196   1.359       .  A
C195        H200   1.067       .  S
C196        C197   1.384       .  A
C197        C198   1.404       .  A
C197        H701   1.084       .  S
C198        C199   1.371       .  A
C199        H202   1.074   1_655  S
H201        C697   1.084       .  S
C203        C204   1.356       .  D
C203        C408   1.446       .  S
C203        C429   1.468       .  S
C204        C420   1.439   1_565  S
C204        C441   1.445   1_565  S
C205        C245   1.589       .  S
C205        C206   1.433       .  A
C205        C210   1.448       .  A
C206        C207   1.441       .  A
C206        H211   1.082       .  S
C207        C208   1.379       .  A
C208        C209   1.378       .  A
C208        H212   1.085       .  S
C209        C210   1.456       .  A
C209        C239   1.515       .  S
C210        H213   1.082       .  S
C214        C246   1.585       .  S
C214        C215   1.428       .  A
C214        C219   1.460       .  A
C215        C216   1.431       .  A
C215        H220   1.082       .  S
C216        C217   1.391       .  A
C217        C218   1.404       .  A
C217        H221   1.086       .  S
C218        C219   1.457       .  A
C218        C243   1.544       .  S
C219        H222   1.082       .  S
O223        C238   1.263   1_556  A
O223       Al231   1.831   1_545  S
C224        O234   1.288       .  A
C224        O225   1.255       .  A
O225       Al727   1.880       .  S
O226        C228   1.275       .  A
O226       Al727   1.866       .  S
Al227       O235   1.799   1_556  S
Al227       O237   1.861   1_556  S
Al227       O725   1.880       .  S
Al227       O726   1.866       .  S
Al227       O236   1.574       .  S
C228        C298   1.489       .  S
C228        O241   1.288       .  A
O229        C239   1.249       .  A
O229       Al731   1.860       .  S
O230        C243   1.289       .  A
O230       Al240   1.951   1_564  S
Al231       O244   2.042       .  S
Al231       O729   1.860       .  S
Al231       O741   1.973   1_565  S
Al231       O236   1.699   1_565  S
O232        C239   1.302       .  A
O232       Al740   2.028   1_565  S
O233        C242   1.357       .  A
O233       Al240   2.277   1_554  S
O234       Al740   1.990       .  S
O235        C242   1.302       .  A
O236       Al240   1.735       .  S
O237        C238   1.250       .  A
C238        C289   1.397       .  S
Al240       O732   2.028   1_545  S
Al240       O734   1.990       .  S
O241       Al731   1.973   1_545  S
C243        O244   1.299   1_554  A
C245        C246   1.434       .  D
C245        C256   1.591       .  S
C246        C247   1.574       .  S
C247        C248   1.430       .  A
C247        C252   1.430       .  A
C248        C249   1.443       .  A
C248        H253   1.083       .  S
C249        C250   1.379       .  A
C250        C251   1.382       .  A
C250        H254   1.085       .  S
C251        C252   1.443       .  A
C251        C280   1.492       .  S
C252        H255   1.073       .  S
C256        C257   1.446       .  A
C256        C261   1.442       .  A
C257        C258   1.449       .  A
C257        H262   1.082       .  S
C258        C259   1.394       .  A
C259        C260   1.395       .  A
C259        H263   1.084       .  S
C260        C261   1.447       .  A
C260        C270   1.526       .  S
C261        H264   1.082       .  S
O265        C280   1.253       .  A
O265       Al773   1.853   1_554  S
C266        O276   1.260       .  A
C266        O267   1.295       .  A
O267       Al769   2.021       .  S
O268        C270   1.303       .  A
O268       Al769   2.018       .  S
Al269       O277   2.283   1_556  S
Al269       O279   1.990   1_556  S
Al269       O767   2.021       .  S
Al269       O768   2.018       .  S
Al269       O778   1.749       .  S
C270        O283   1.271       .  A
O271        C281   1.266       .  A
O271       Al273   1.834       .  S
O272        C285   1.229       .  A
O272       Al282   1.902       .  S
Al273       O283   1.910       .  S
Al273       O765   1.853       .  S
Al273       O786   1.976       .  S
Al273       O278   1.724       .  S
O274        C281   1.273       .  A
O274       Al782   1.885       .  S
O275        C284   1.301       .  A
O275       Al282   1.770       .  S
O276       Al782   1.894       .  S
O277        C284   1.357       .  A
O278       Al769   1.749       .  S
O278       Al782   1.557       .  S
O279        C280   1.291       .  A
C281        C398   1.417       .  S
Al282       O774   1.885   1_554  S
Al282       O776   1.894   1_554  S
Al282       O778   1.557   1_554  S
C285        C391   1.452       .  S
C285        O286   1.276       .  A
O286       Al773   1.976   1_554  S
C287        C288   1.397   1_545  A
C287        C292   1.390       .  A
C287        C405   1.490   1_545  S
C288        C289   1.381   1_565  A
C288        H293   1.080       .  S
C289        C290   1.390       .  A
C290        C291   1.380       .  A
C290        H794   1.085       .  S
C291        C292   1.384       .  A
C291        C370   1.445       .  S
C292        H295   1.054       .  S
H294        C790   1.085       .  S
C296        C297   1.399       .  A
C296        C301   1.423       .  A
C296        C444   1.458       .  S
C297        C298   1.372       .  A
C297        H302   1.075       .  S
C298        C299   1.370       .  A
C299        C300   1.401       .  A
C299        H803   1.079       .  S
C300        C301   1.381       .  A
C300        C380   1.456       .  S
C301        H304   1.082       .  S
H303        C799   1.079       .  S
C305        C346   1.580       .  S
C305        C306   1.428       .  A
C305        C310   1.454       .  A
C306        C307   1.435       .  A
C306        H311   1.082       .  S
C307        C308   1.368       .  A
C308        C309   1.383       .  A
C308        H312   1.087       .  S
C309        C310   1.454       .  A
C309        C339   1.513       .  S
C310        H313   1.082       .  S
C314        C345   1.614       .  S
C314        C315   1.453       .  A
C314        C319   1.447       .  A
C315        C316   1.460       .  A
C315        H320   1.082       .  S
C316        C317   1.389       .  A
C317        C318   1.384       .  A
C317        H321   1.084       .  S
C318        C319   1.457       .  A
C318        C343   1.525       .  S
C319        H322   1.082       .  S
O323        C338   1.284       .  A
O323       Al831   1.930   1_565  S
C324        O334   1.356       .  A
C324        O325   1.300       .  A
O325       Al827   1.791       .  S
O326        C328   1.253       .  A
O326       Al827   1.875       .  S
Al327       O335   1.896       .  S
Al327       O337   1.833       .  S
Al327       O825   1.791   1_554  S
Al327       O826   1.875   1_554  S
Al327       O336   1.575       .  S
C328        C400   1.409       .  S
C328        O341   1.254   1_565  A
O329        C339   1.285       .  A
O329       Al331   1.971       .  S
O330        C343   1.304       .  A
O330       Al340   2.054   1_545  S
Al331       O341   1.813       .  S
Al331       O823   1.930   1_545  S
Al331       O844   1.861       .  S
Al331       O836   1.695   1_545  S
O332        C339   1.293       .  A
O332       Al840   1.961   1_545  S
O333        C342   1.295       .  A
O333       Al340   1.998       .  S
O334       Al840   2.281       .  S
O335        C342   1.256       .  A
O336       Al340   1.726       .  S
O336       Al831   1.695   1_565  S
O337        C338   1.261       .  A
C338        C389   1.420       .  S
Al340       O832   1.961   1_564  S
Al340       O834   2.281   1_554  S
C343        O344   1.250       .  A
O344       Al831   1.861       .  S
C345        C346   1.440       .  D
C345        C356   1.582       .  S
C346        C347   1.605       .  S
C347        C348   1.439       .  A
C347        C352   1.442       .  A
C348        C349   1.454       .  A
C348        H353   1.083       .  S
C349        C350   1.388       .  A
C349        C385   1.506       .  S
C350        C351   1.386       .  A
C350        H354   1.086       .  S
C351        C352   1.456       .  A
C352        H355   1.076       .  S
C356        C357   1.429       .  A
C356        C361   1.454       .  A
C357        C358   1.434       .  A
C357        H362   1.083       .  S
C358        C359   1.393       .  A
C359        C360   1.399       .  A
C359        H363   1.084       .  S
C360        C361   1.455       .  A
C360        C381   1.540       .  S
C361        H364   1.082       .  S
O365        C380   1.272       .  A
O365       Al873   1.955       .  S
C366        O376   1.280       .  A
C366        O367   1.239       .  A
O367       Al869   1.814       .  S
O368        C370   1.250       .  A
O368       Al869   1.865       .  S
Al369       O377   1.907       .  S
Al369       O379   1.851       .  S
Al369       O867   1.814       .  S
Al369       O868   1.865       .  S
Al369       O378   1.802       .  S
C370        O383   1.246       .  A
O371        C381   1.276       .  A
O371       Al373   1.936       .  S
O372        C385   1.275       .  A
O372       Al382   2.010       .  S
Al373       O383   1.827       .  S
Al373       O865   1.955   1_554  S
Al373       O886   1.839   1_554  S
Al373       O878   1.784       .  S
O374        C381   1.305       .  A
O374       Al882   2.029       .  S
O375        C384   1.287       .  A
O375       Al382   1.999       .  S
O376       Al882   1.992       .  S
O377        C384   1.255       .  A
O378       Al382   1.738       .  S
O378       Al873   1.784       .  S
O379        C380   1.250       .  A
Al382       O874   2.029       .  S
Al382       O876   1.992       .  S
C385        O386   1.231       .  A
O386       Al873   1.839       .  S
C387        C388   1.402       .  A
C387        C392   1.424       .  A
C387        C432   1.506       .  S
C388        C389   1.380       .  A
C388        H393   1.079       .  S
C389        C390   1.370       .  A
C390        C391   1.374       .  A
C390        H894   1.076       .  S
C391        C392   1.402       .  A
C392        H395   1.083       .  S
H394        C890   1.076       .  S
C396        C397   1.395       .  A
C396        C401   1.407   1_565  A
C396        C417   1.518   1_565  S
C397        C398   1.381       .  A
C397        H402   1.080       .  S
C398        C399   1.368       .  A
C399        C400   1.387       .  A
C399        H903   1.084       .  S
C400        C401   1.373   1_565  A
C401        H404   1.071       .  S
H403        C899   1.084       .  S
C405        C406   1.397       .  A
C405        C410   1.417       .  A
C406        C407   1.383       .  A
C406        H411   1.083       .  S
C407        C408   1.405       .  A
C407        C414   1.437       .  S
C408        C409   1.404       .  A
C409        C410   1.378       .  A
C409        H412   1.082       .  S
C410        C413   1.437   1_565  S
C413        N415   1.157       .  T
C414        N416   1.155       .  T
C417        C418   1.411   1_545  A
C417        C422   1.396       .  A
C418        C419   1.394       .  A
C418        H423   1.079       .  S
C419        C420   1.416   1_565  A
C419        C426   1.442       .  S
C420        C421   1.425       .  A
C421        C422   1.390       .  A
C421        H424   1.072       .  S
C422        C425   1.439       .  S
C425        N427   1.157       .  T
C426        N428   1.157       .  T
C429        C430   1.409       .  A
C429        C434   1.418       .  A
C430        C431   1.403       .  A
C430        H435   1.084       .  S
C431        C432   1.412       .  A
C431        C438   1.444       .  S
C432        C433   1.399       .  A
C433        C434   1.405       .  A
C433        H436   1.081       .  S
C434        C437   1.438       .  S
C437        N439   1.155       .  T
C438        N440   1.157       .  T
C441        C442   1.381       .  A
C441        C446   1.405       .  A
C442        C443   1.367       .  A
C442        H447   1.083   1_545  S
C443        C444   1.431       .  A
C443        C450   1.446       .  S
C444        C445   1.409       .  A
C445        C446   1.379       .  A
C445        H448   1.085       .  S
C446        C449   1.448       .  S
C449        N451   1.158       .  T
C450        N452   1.158       .  T
C453        C454   1.406       .  A
C453        C458   1.423       .  A
C454        C455   1.383       .  A
C454        H459   1.085       .  S
C455        C456   1.408       .  A
C455        C462   1.449   1_655  S
C456        C457   1.403       .  A
C457        C458   1.399       .  A
C457        H460   1.085       .  S
C458        C461   1.446       .  S
C461        N463   1.157       .  T
C462        N464   1.158       .  T
C465        C466   1.414       .  A
C465        C470   1.420       .  A
C466        C467   1.396       .  A
C466        H471   1.083       .  S
C467        C468   1.407       .  A
C467        C474   1.442   1_455  S
C468        C469   1.396       .  A
C469        C470   1.386       .  A
C469        H472   1.083       .  S
C470        C473   1.446       .  S
C473        N475   1.158       .  T
C474        N476   1.157       .  T
C477        C478   1.411       .  A
C477        C482   1.403       .  A
C478        C479   1.376       .  A
C478        H483   1.062   1_655  S
C479        C480   1.392       .  A
C479        C486   1.438   1_655  S
C480        C481   1.414       .  A
C481        C482   1.393       .  A
C481        H484   1.084       .  S
C482        C485   1.440       .  S
C485        N487   1.157       .  T
C486        N488   1.156       .  T
C489        C490   1.409       .  A
C489        C494   1.380       .  A
C490        C491   1.388       .  A
C490        H495   1.079       .  S
C491        C492   1.433       .  A
C491        C498   1.442       .  S
C492        C493   1.436   1_455  A
C493        C494   1.352   1_655  A
C493        H496   1.077       .  S
C494        C497   1.400       .  S
C497        N499   1.146       .  T
C498        N500   1.157       .  T
C501        C502   1.360   1_655  D
C501        C956   1.465       .  S
C501        C977   1.446       .  S
C502        C968   1.457       .  S
C502        C989   1.448       .  S
C503        C544   1.574       .  S
C503        C504   1.445       .  A
C503        C508   1.420       .  A
C504        C505   1.455       .  A
C504        H509   1.083       .  S
C505        C506   1.390       .  A
C505        C537   1.520       .  S
C506        C507   1.387       .  A
C506        H510   1.085       .  S
C507        C508   1.431       .  A
C507        C724   1.483       .  S
C508        H511   1.082       .  S
C512        C543   1.580       .  S
C512        C513   1.430       .  A
C512        C517   1.446       .  A
C513        C514   1.437       .  A
C513        H518   1.082       .  S
C514        C515   1.388       .  A
C514        C541   1.497       .  S
C515        C516   1.384       .  A
C515        H519   1.084       .  S
C516        C517   1.452       .  A
C516        C742   1.519       .  S
C517        H520   1.082       .  S
O521        C536   1.259       .  A
C522        C807   1.484       .  S
C522        O532   1.355       .  A
C522        O523   1.304       .  A
O524        C526   1.229       .  A
Al525       O533   1.898       .  S
Al525       O535   1.851       .  S
Al525       O534   1.545       .  S
C526        C596   1.466       .  S
C526        O539   1.284       .  A
O527        C537   1.256       .  A
O527       Al529   1.879   1_556  S
O528        C541   1.298       .  A
O528       Al538   1.986   1_655  S
Al529       O539   2.031   1_654  S
O530        C537   1.299       .  A
O531        C540   1.300       .  A
O531       Al538   2.062       .  S
O533        C540   1.252       .  A
O534       Al538   1.743       .  S
O535        C536   1.268       .  A
C536        C587   1.400       .  S
C540        C816   1.525       .  S
C541        O542   1.267       .  A
C543        C544   1.425       .  D
C543        C554   1.568       .  S
C544        C545   1.585       .  S
C545        C546   1.437       .  A
C545        C550   1.439       .  A
C546        C547   1.446       .  A
C546        H551   1.070       .  S
C547        C548   1.389       .  A
C547        C884   1.526       .  S
C548        C549   1.398       .  A
C548        H552   1.084       .  S
C549        C550   1.446       .  A
C549        C583   1.514       .  S
C550        H553   1.083       .  S
C554        C555   1.420       .  A
C554        C559   1.442       .  A
C555        C556   1.434       .  A
C555        H560   1.084       .  S
C556        C557   1.395       .  A
C556        C866   1.495       .  S
C557        C558   1.401       .  A
C557        H561   1.085       .  S
C558        C559   1.448       .  A
C558        C579   1.523       .  S
C559        H562   1.080       .  S
O563        C578   1.283       .  A
C564        C749   1.493       .  S
C564        O574   1.353       .  A
C564        O565   1.298       .  A
O566        C568   1.240       .  A
Al567       O575   1.913   1_554  S
Al567       O577   1.856   1_554  S
Al567       O576   1.555   1_554  S
C568        C687   1.440       .  S
C568        O581   1.270       .  A
O569        C579   1.270       .  A
O569       Al571   1.932       .  S
O570        C583   1.299       .  A
O570       Al580   1.996       .  S
Al571       O581   1.952       .  S
O572        C579   1.292       .  A
O573        C582   1.296       .  A
O573       Al580   2.043       .  S
O575        C582   1.258       .  A
O576       Al580   1.755       .  S
O577        C578   1.264       .  A
C578        C696   1.419       .  S
C582        C758   1.522       .  S
C583        O584   1.270       .  A
C585        C586   1.382       .  A
C585        C590   1.412       .  A
C585        C980   1.489   1_455  S
C586        C587   1.387       .  A
C586        H591   1.081   1_455  S
C587        C588   1.369       .  A
C588        C589   1.381       .  A
C589        C590   1.381       .  A
C589        C668   1.407       .  S
C590        H593   1.068       .  S
C594        C595   1.425       .  A
C594        C599   1.416       .  A
C594        C965   1.499       .  S
C595        C596   1.394       .  A
C595        H600   1.082       .  S
C596        C597   1.367       .  A
C597        C598   1.373       .  A
C598        C599   1.385       .  A
C598        C678   1.465       .  S
C599        H602   1.076       .  S
C603        C644   1.635       .  S
C603        C604   1.444       .  A
C603        C608   1.478       .  A
C604        C605   1.450       .  A
C604        H609   1.082       .  S
C605        C606   1.384       .  A
C605        C824   1.514       .  S
C606        C607   1.387       .  A
C606        H610   1.086       .  S
C607        C608   1.478       .  A
C607        C637   1.560       .  S
C608        H611   1.081       .  S
C612        C643   1.566       .  S
C612        C613   1.423       .  A
C612        C617   1.430       .  A
C613        C614   1.442       .  A
C613        H618   1.083       .  S
C614        C615   1.384       .  A
C614        C641   1.493       .  S
C615        C616   1.385       .  A
C615        H619   1.085       .  S
C616        C617   1.444       .  A
C616        C842   1.499       .  S
C617        H620   1.075       .  S
O621        C636   1.277       .  A
C622        C707   1.492       .  S
C622        O632   1.351       .  A
C622        O623   1.304       .  A
O624        C626   1.236       .  A
Al625       O633   1.866       .  S
Al625       O635   1.881       .  S
Al625       O634   1.567       .  S
C626        C698   1.391       .  S
C626        O639   1.266       .  A
O627        C637   1.279       .  A
O627       Al629   1.986   1_556  S
O628        C641   1.302       .  A
O628       Al638   2.017   1_455  S
Al629       O639   1.827   1_454  S
O630        C637   1.296       .  A
O631        C640   1.300       .  A
O631       Al638   2.050       .  S
O633        C640   1.254       .  A
O634       Al638   1.739       .  S
O635        C636   1.269       .  A
C636        C689   1.435       .  S
C640        C716   1.503       .  S
C641        O642   1.253       .  A
C643        C644   1.451       .  D
C643        C645   1.636       .  S
C644        C654   1.574       .  S
C645        C646   1.488       .  A
C645        C650   1.436       .  A
C646        C647   1.486       .  A
C646        H651   1.082       .  S
C647        C648   1.386       .  A
C647        C679   1.567       .  S
C648        C649   1.374       .  A
C648        H652   1.088       .  S
C649        C650   1.443       .  A
C649        C784   1.496       .  S
C650        H653   1.081       .  S
C654        C655   1.441       .  A
C654        C659   1.429       .  A
C655        C656   1.447       .  A
C655        H660   1.080       .  S
C656        C657   1.392       .  A
C656        C766   1.511       .  S
C657        C658   1.384       .  A
C657        H661   1.084       .  S
C658        C659   1.440       .  A
C658        C683   1.503       .  S
C659        H662   1.083       .  S
O663        C678   1.294       .  A
C664        C858   1.506       .  S
C664        O674   1.347       .  A
C664        O665   1.302       .  A
O666        C668   1.257       .  A
Al667       O675   1.892   1_554  S
Al667       O677   1.829   1_554  S
Al667       O676   1.566   1_554  S
C668        O681   1.252       .  A
O669        C679   1.303       .  A
O669       Al671   2.052       .  S
O670        C683   1.292       .  A
O670       Al680   2.015       .  S
Al671       O681   1.816       .  S
O672        C679   1.302       .  A
O673        C682   1.299       .  A
O673       Al680   2.036       .  S
O675        C682   1.251       .  A
O676       Al680   1.734       .  S
O677        C678   1.272       .  A
C682        C851   1.515       .  S
C683        O684   1.246       .  A
C685        C686   1.395       .  A
C685        C690   1.409       .  A
C685        C953   1.506       .  S
C686        C687   1.408       .  A
C686        H691   1.083       .  S
C687        C688   1.396       .  A
C688        C689   1.391       .  A
C689        C690   1.409       .  A
C690        H693   1.083       .  S
C694        C695   1.377       .  A
C694        C699   1.379       .  A
C694        C992   1.443   1_655  S
C695        C696   1.359       .  A
C695        H700   1.067       .  S
C696        C697   1.384       .  A
C697        C698   1.404       .  A
C698        C699   1.371       .  A
C699        H702   1.074   1_655  S
C703        C704   1.356       .  D
C703        C908   1.446       .  S
C703        C929   1.468       .  S
C704        C920   1.439   1_565  S
C704        C941   1.445   1_565  S
C705        C745   1.589       .  S
C705        C706   1.433       .  A
C705        C710   1.448       .  A
C706        C707   1.441       .  A
C706        H711   1.082       .  S
C707        C708   1.379       .  A
C708        C709   1.378       .  A
C708        H712   1.085       .  S
C709        C710   1.456       .  A
C709        C739   1.515       .  S
C710        H713   1.082       .  S
C714        C746   1.585       .  S
C714        C715   1.428       .  A
C714        C719   1.460       .  A
C715        C716   1.431       .  A
C715        H720   1.082       .  S
C716        C717   1.391       .  A
C717        C718   1.404       .  A
C717        H721   1.086       .  S
C718        C719   1.457       .  A
C718        C743   1.544       .  S
C719        H722   1.082       .  S
O723        C738   1.263       .  A
O723       Al731   1.831   1_545  S
C724        O734   1.288       .  A
C724        O725   1.255       .  A
O726        C728   1.275       .  A
Al727       O735   1.799       .  S
Al727       O737   1.861       .  S
Al727       O736   1.574       .  S
C728        C798   1.489       .  S
C728        O741   1.288       .  A
O729        C739   1.249       .  A
O730        C743   1.289       .  A
O730       Al740   1.951   1_565  S
Al731       O744   2.042       .  S
Al731       O736   1.699   1_565  S
O732        C739   1.302       .  A
O733        C742   1.357       .  A
O733       Al740   2.277       .  S
O735        C742   1.302       .  A
O736       Al740   1.735       .  S
O737        C738   1.250       .  A
C738        C789   1.397       .  S
C743        O744   1.299       .  A
C745        C746   1.434       .  D
C745        C756   1.591       .  S
C746        C747   1.574       .  S
C747        C748   1.430       .  A
C747        C752   1.430       .  A
C748        C749   1.443       .  A
C748        H753   1.083       .  S
C749        C750   1.379       .  A
C750        C751   1.382       .  A
C750        H754   1.085       .  S
C751        C752   1.443       .  A
C751        C780   1.492       .  S
C752        H755   1.073       .  S
C756        C757   1.446       .  A
C756        C761   1.442       .  A
C757        C758   1.449       .  A
C757        H762   1.082       .  S
C758        C759   1.394       .  A
C759        C760   1.395       .  A
C759        H763   1.084       .  S
C760        C761   1.447       .  A
C760        C770   1.526       .  S
C761        H764   1.082       .  S
O765        C780   1.253       .  A
C766        O776   1.260       .  A
C766        O767   1.295       .  A
O768        C770   1.303       .  A
Al769       O777   2.283       .  S
Al769       O779   1.990       .  S
C770        O783   1.271       .  A
O771        C781   1.266       .  A
O771       Al773   1.834       .  S
O772        C785   1.229       .  A
O772       Al782   1.902       .  S
Al773       O783   1.910       .  S
Al773       O778   1.724       .  S
O774        C781   1.273       .  A
O775        C784   1.301       .  A
O775       Al782   1.770       .  S
O777        C784   1.357       .  A
O779        C780   1.291       .  A
C781        C898   1.417       .  S
C785        C891   1.452       .  S
C785        O786   1.276       .  A
C787        C788   1.397   1_545  A
C787        C792   1.390       .  A
C787        C905   1.490   1_545  S
C788        C789   1.381   1_565  A
C788        H793   1.080       .  S
C789        C790   1.390       .  A
C790        C791   1.380       .  A
C791        C792   1.384       .  A
C791        C870   1.445       .  S
C792        H795   1.054       .  S
C796        C797   1.399       .  A
C796        C801   1.423       .  A
C796        C944   1.458       .  S
C797        C798   1.372       .  A
C797        H802   1.075       .  S
C798        C799   1.370       .  A
C799        C800   1.401       .  A
C800        C801   1.381       .  A
C800        C880   1.456       .  S
C801        H804   1.082       .  S
C805        C846   1.580       .  S
C805        C806   1.428       .  A
C805        C810   1.454       .  A
C806        C807   1.435       .  A
C806        H811   1.082       .  S
C807        C808   1.368       .  A
C808        C809   1.383       .  A
C808        H812   1.087       .  S
C809        C810   1.454       .  A
C809        C839   1.513       .  S
C810        H813   1.082       .  S
C814        C845   1.614       .  S
C814        C815   1.453       .  A
C814        C819   1.447       .  A
C815        C816   1.460       .  A
C815        H820   1.082       .  S
C816        C817   1.389       .  A
C817        C818   1.384       .  A
C817        H821   1.084       .  S
C818        C819   1.457       .  A
C818        C843   1.525       .  S
C819        H822   1.082       .  S
O823        C838   1.284       .  A
C824        O834   1.356       .  A
C824        O825   1.300       .  A
O826        C828   1.253       .  A
Al827       O835   1.896       .  S
Al827       O837   1.833       .  S
Al827       O836   1.575       .  S
C828        C900   1.409       .  S
C828        O841   1.254   1_565  A
O829        C839   1.285       .  A
O829       Al831   1.971   1_556  S
O830        C843   1.304       .  A
O830       Al840   2.054   1_545  S
Al831       O841   1.813   1_554  S
O832        C839   1.293       .  A
O833        C842   1.295       .  A
O833       Al840   1.998       .  S
O835        C842   1.256       .  A
O836       Al840   1.726       .  S
O837        C838   1.261       .  A
C838        C889   1.420       .  S
C843        O844   1.250       .  A
C845        C846   1.440       .  D
C845        C856   1.582       .  S
C846        C847   1.605       .  S
C847        C848   1.439       .  A
C847        C852   1.442       .  A
C848        C849   1.454       .  A
C848        H853   1.083       .  S
C849        C850   1.388       .  A
C849        C885   1.506       .  S
C850        C851   1.386       .  A
C850        H854   1.086       .  S
C851        C852   1.456       .  A
C852        H855   1.076       .  S
C856        C857   1.429       .  A
C856        C861   1.454       .  A
C857        C858   1.434       .  A
C857        H862   1.083       .  S
C858        C859   1.393       .  A
C859        C860   1.399       .  A
C859        H863   1.084       .  S
C860        C861   1.455       .  A
C860        C881   1.540       .  S
C861        H864   1.082       .  S
O865        C880   1.272       .  A
C866        O876   1.280       .  A
C866        O867   1.239       .  A
O868        C870   1.250       .  A
Al869       O877   1.907   1_554  S
Al869       O879   1.851   1_554  S
Al869       O878   1.802       .  S
C870        O883   1.246       .  A
O871        C881   1.276       .  A
O871       Al873   1.936       .  S
O872        C885   1.275       .  A
O872       Al882   2.010   1_556  S
Al873       O883   1.827       .  S
O874        C881   1.305       .  A
O875        C884   1.287       .  A
O875       Al882   1.999   1_556  S
O877        C884   1.255       .  A
O878       Al882   1.738       .  S
O879        C880   1.250       .  A
C885        O886   1.231       .  A
C887        C888   1.402       .  A
C887        C892   1.424       .  A
C887        C932   1.506       .  S
C888        C889   1.380       .  A
C888        H893   1.079       .  S
C889        C890   1.370       .  A
C890        C891   1.374       .  A
C891        C892   1.402       .  A
C892        H895   1.083       .  S
C896        C897   1.395       .  A
C896        C901   1.407   1_565  A
C896        C917   1.518   1_565  S
C897        C898   1.381       .  A
C897        H902   1.080       .  S
C898        C899   1.368       .  A
C899        C900   1.387       .  A
C900        C901   1.373   1_565  A
C901        H904   1.071       .  S
C905        C906   1.397       .  A
C905        C910   1.417       .  A
C906        C907   1.383       .  A
C906        H911   1.083       .  S
C907        C908   1.405       .  A
C907        C914   1.437       .  S
C908        C909   1.404       .  A
C909        C910   1.378       .  A
C909        H912   1.082       .  S
C910        C913   1.437   1_565  S
C913        N915   1.157       .  T
C914        N916   1.155       .  T
C917        C918   1.411   1_545  A
C917        C922   1.396       .  A
C918        C919   1.394       .  A
C918        H923   1.079       .  S
C919        C920   1.416   1_565  A
C919        C926   1.442       .  S
C920        C921   1.425       .  A
C921        C922   1.390       .  A
C921        H924   1.072       .  S
C922        C925   1.439       .  S
C925        N927   1.157       .  T
C926        N928   1.157       .  T
C929        C930   1.409       .  A
C929        C934   1.418       .  A
C930        C931   1.403       .  A
C930        H935   1.084       .  S
C931        C932   1.412       .  A
C931        C938   1.444       .  S
C932        C933   1.399       .  A
C933        C934   1.405       .  A
C933        H936   1.081       .  S
C934        C937   1.438       .  S
C937        N939   1.155       .  T
C938        N940   1.157       .  T
C941        C942   1.381       .  A
C941        C946   1.405       .  A
C942        C943   1.367       .  A
C942        H947   1.083   1_545  S
C943        C944   1.431       .  A
C943        C950   1.446       .  S
C944        C945   1.409       .  A
C945        C946   1.379       .  A
C945        H948   1.085       .  S
C946        C949   1.448       .  S
C949        N951   1.158       .  T
C950        N952   1.158       .  T
C953        C954   1.406       .  A
C953        C958   1.423       .  A
C954        C955   1.383       .  A
C954        H959   1.085       .  S
C955        C956   1.408       .  A
C955        C962   1.449   1_655  S
C956        C957   1.403       .  A
C957        C958   1.399       .  A
C957        H960   1.085       .  S
C958        C961   1.446       .  S
C961        N963   1.157       .  T
C962        N964   1.158       .  T
C965        C966   1.414       .  A
C965        C970   1.420       .  A
C966        C967   1.396       .  A
C966        H971   1.083       .  S
C967        C968   1.407       .  A
C967        C974   1.442   1_455  S
C968        C969   1.396       .  A
C969        C970   1.386       .  A
C969        H972   1.083       .  S
C970        C973   1.446       .  S
C973        N975   1.158       .  T
C974        N976   1.157       .  T
C977        C978   1.411       .  A
C977        C982   1.403       .  A
C978        C979   1.376       .  A
C978        H983   1.062   1_655  S
C979        C980   1.392       .  A
C979        C986   1.438   1_655  S
C980        C981   1.414       .  A
C981        C982   1.393       .  A
C981        H984   1.084       .  S
C982        C985   1.440       .  S
C985        N987   1.157       .  T
C986        N988   1.156       .  T
C989        C990   1.409       .  A
C989        C994   1.380       .  A
C990        C991   1.388       .  A
C990        H995   1.079       .  S
C991        C992   1.433       .  A
C991        C998   1.442       .  S
C992        C993   1.436   1_455  A
C993        C994   1.352   1_655  A
C993        H996   1.077       .  S
C994        C997   1.400       .  S
C997        N999   1.146       .  T
C998       N1000   1.157       .  T
