geometry optimzed in LAMMPS
_audit_creation_date              2020-12-01 
_audit_creation_method            'lammps2cif' 
_symmetry_space_group_name_H-M    'P1' 
_symmetry_Int_Tables_number       1 
_symmetry_cell_setting            triclinic 
loop_ 
_symmetry_equiv_pos_as_xyz 
  x,y,z 
_cell_length_a                    35.88268389 
_cell_length_b                    35.89462261562081 
_cell_length_c                    30.070193206963587 
_cell_angle_alpha                 90.22671140836218 
_cell_angle_beta                  90.43173813860619 
_cell_angle_gamma                 89.74239498216805 
loop_ 
_atom_site_label 
_atom_site_type_symbol 
_atom_site_fract_x 
_atom_site_fract_y 
_atom_site_fract_z 
_atom_site_charge 
O1          O  0.51262725  0.81178362  0.07626611    -0.82100
C2          C  0.45309504  0.76579579  0.22890354     0.97300
O3          O  0.44823240  0.79216994  0.20183122    -0.71200
O4          O  0.47063597  0.83885237  0.14260223    -0.74800
Al5        Al  0.45283726  0.78918189  0.13991893     1.49000
C6          C  0.49973338  0.85262952  0.15947018     0.92500
O7          O  0.57088724  0.76996023  0.17011595    -0.81000
O8          O  0.53637425  0.70262840  0.13175116    -0.74600
Al9        Al  0.53728598  0.78930086  0.12580441     1.90100
O10         O  0.53554384  0.73676605  0.21346153    -0.73600
O11         O  0.46408171  0.70104373  0.13112480    -0.73500
O12         O  0.46294754  0.73366039  0.21572800    -0.79100
O13         O  0.42299963  0.74553117  0.13635569    -0.77300
O14         O  0.49682990  0.76673350  0.14576314    -1.13500
O15         O  0.45637924  0.78759702  0.07693853    -0.72700
C16         C  0.48347596  0.80136436  0.05590703     0.98100
C17         C  0.56697105  0.74991604  0.20418310     0.94400
Al18       Al  0.49940484  0.72212083  0.17100578     1.55600
O19         O  0.52929325  0.83318179  0.16246202    -0.77300
C20         C  0.43146909  0.71288428  0.12488264     0.98600
C21         C  0.55073337  0.71472580  0.09642271     0.93500
O22         O  0.54896317  0.74891629  0.08668912    -0.82600
O23         O  0.80675882  0.51368541  0.46570781    -0.82100
C24         C  0.75613741  0.45662904  0.31048289     0.97300
O25         O  0.78328501  0.45180091  0.33671759    -0.71200
O26         O  0.83147774  0.47524388  0.39419412    -0.74800
Al27       Al  0.78269692  0.45556559  0.39887451     1.49000
C28         C  0.84317543  0.50572209  0.37904278     0.92500
O29         O  0.75956402  0.57477767  0.37807114    -0.81000
O30         O  0.69537134  0.53705176  0.41422740    -0.74600
Al31       Al  0.78129025  0.53956806  0.41876027     1.90100
O32         O  0.72777432  0.54003918  0.33193841    -0.73600
O33         O  0.69415969  0.46487359  0.40909825    -0.73500
O34         O  0.72487902  0.46780676  0.32466047    -0.79100
O35         O  0.73966597  0.42484213  0.40350295    -0.77300
O36         O  0.75920254  0.49921956  0.39640400    -1.13500
O37         O  0.78385866  0.45709650  0.46187576    -0.72700
C38         C  0.79804535  0.48340058  0.48425633     0.98100
C39         C  0.73966136  0.57157788  0.34350666     0.94400
Al40       Al  0.71418430  0.50208064  0.37195986     1.55600
O41         O  0.82296778  0.53467358  0.37987765    -0.77300
C42         C  0.70679822  0.43250424  0.41472790     0.98600
C43         C  0.70800648  0.55040801  0.45027524     0.93500
O44         O  0.74230397  0.54820869  0.45963451    -0.82600
O45         O  0.55112080  0.22120971  0.58786782    -0.82100
C46         C  0.45547075  0.20976997  0.73142834     0.97300
O47         O  0.46718113  0.24113718  0.71828449    -0.71200
O48         O  0.53925229  0.23529287  0.71323934    -0.74800
Al49       Al  0.50258045  0.25126307  0.67216732     1.49000
C50         C  0.56941644  0.21918632  0.70395461     0.92500
O51         O  0.52715947  0.13884670  0.66191189    -0.81000
O52         O  0.45540370  0.18859964  0.57888128    -0.74600
Al53       Al  0.53697262  0.18186349  0.62604202     1.90100
O54         O  0.46818529  0.13630870  0.64305660    -0.73600
O55         O  0.42427405  0.23177488  0.63996050    -0.73500
O56         O  0.44893999  0.18378085  0.70402795    -0.79100
O57         O  0.46689529  0.27409891  0.63382987    -0.77300
O58         O  0.49779829  0.20682417  0.64685322    -1.13500
O59         O  0.53901599  0.26887409  0.63145822    -0.72700
C60         C  0.55362366  0.25552561  0.59672457     0.98100
C61         C  0.49694917  0.12095423  0.65881060     0.94400
Al62       Al  0.45269785  0.18678621  0.64188444     1.55600
O63         O  0.57167002  0.19840110  0.67019099    -0.77300
C64         C  0.43368147  0.26399670  0.62849633     0.98600
C65         C  0.48151876  0.17357342  0.55690611     0.93500
O66         O  0.51064635  0.16152955  0.57616901    -0.82600
O67         O  0.73796967  0.41680137  0.95202591    -0.82100
C68         C  0.75136674  0.51189426  0.80789094     0.97300
O69         O  0.71997364  0.49913202  0.81945412    -0.71200
O70         O  0.72600944  0.42687727  0.82453810    -0.74800
Al71       Al  0.70909896  0.46355464  0.86528201     1.49000
C72         C  0.74038509  0.39626989  0.83571676     0.92500
O73         O  0.81946527  0.43829383  0.87568076    -0.81000
O74         O  0.77118696  0.50934617  0.96130123    -0.74600
Al75       Al  0.77741805  0.42915743  0.91309188     1.90100
O76         O  0.82351752  0.49694871  0.89589825    -0.73600
O77         O  0.72790388  0.54175274  0.90124801    -0.73500
O78         O  0.77628126  0.51900323  0.83647801    -0.79100
O79         O  0.68546192  0.49873325  0.90287715    -0.77300
O80         O  0.75294416  0.46850676  0.89193029    -1.13500
O81         O  0.69105435  0.42705241  0.90610377    -0.72700
C82         C  0.70377240  0.41383462  0.94220576     0.98100
C83         C  0.83771555  0.46837410  0.87798045     0.94400
Al84       Al  0.77307859  0.51344807  0.89825446     1.55600
O85         O  0.75972097  0.39401796  0.87067273    -0.77300
C86         C  0.69549724  0.53153339  0.91090984     0.98600
C87         C  0.78631148  0.48280002  0.98247556     0.93500
O88         O  0.79963357  0.45510945  0.96182176    -0.82600
O89         O  0.43020184  0.18477349  0.07319551    -0.82100
C90         C  0.49656795  0.21840331  0.23310081     0.97300
O91         O  0.51609558  0.20478407  0.20195550    -0.71200
O92         O  0.48335062  0.14667384  0.17033278    -0.74800
Al93       Al  0.49917099  0.19041205  0.14308579     1.49000
C94         C  0.45438664  0.12777611  0.16526457     0.92500
O95         O  0.38894060  0.19943220  0.18613941    -0.81000
O96         O  0.43630979  0.28085088  0.11785466    -0.74600
Al97       Al  0.41291822  0.19303375  0.13031833     1.90100
O98         O  0.40555492  0.25756018  0.19496767    -0.73600
O99         O  0.50329467  0.27595952  0.15422014    -0.73500
O100        O  0.47101119  0.24174371  0.22567479    -0.79100
O101        O  0.52251453  0.22985247  0.11365959    -0.77300
O102        O  0.45554204  0.21412899  0.14810444    -1.13500
O103        O  0.48945014  0.17191458  0.08427926    -0.72700
C104        C  0.46140065  0.17471333  0.05882256     0.98100
C105        C  0.38359484  0.23121892  0.20290279     0.94400
Al106      Al  0.45447964  0.26006894  0.17135728     1.55600
O107        O  0.42553730  0.14240063  0.14807465    -0.77300
C108        C  0.52464190  0.26337665  0.12476299     0.98600
C109        C  0.40612168  0.27099402  0.09934332     0.93500
O110        O  0.39218922  0.23915724  0.10715857    -0.82600
O111        O  0.15084555  0.45236917  0.47224580    -0.82100
C112        C  0.19804846  0.51389852  0.31852256     0.97300
O113        O  0.17275021  0.51917830  0.34671003    -0.71200
O114        O  0.12564423  0.49521613  0.40405593    -0.74800
Al115      Al  0.17573976  0.51184463  0.40841704     1.49000
C116        C  0.11183620  0.46606704  0.38717730     0.92500
O117        O  0.19047607  0.39247167  0.37967025    -0.81000
O118        O  0.25839396  0.42430244  0.41326295    -0.74600
Al119      Al  0.17296650  0.42724292  0.42299033     1.90100
O120        O  0.22103581  0.42673403  0.33279565    -0.73600
O121        O  0.26412401  0.49650425  0.41205113    -0.73500
O122        O  0.22867181  0.49884029  0.32968795    -0.79100
O123        O  0.22096269  0.53933632  0.41361495    -0.77300
O124        O  0.19626273  0.46701671  0.40169986    -1.13500
O125        O  0.17688198  0.50747448  0.47120414    -0.72700
C126        C  0.16170720  0.48132850  0.49233934     0.98100
C127        C  0.20786891  0.39567391  0.34368489     0.94400
Al128      Al  0.23954036  0.46214194  0.37418607     1.55600
O129        O  0.13016275  0.43588149  0.38628593    -0.77300
C130        C  0.25408485  0.52924657  0.42104102     0.98600
C131        C  0.24701865  0.41114724  0.44971000     0.93500
O132        O  0.21350229  0.41528847  0.46151173    -0.82600
O133        O  0.21025815  0.57080997  0.95316397    -0.82100
C134        C  0.19664518  0.46526761  0.81983115     0.97300
O135        O  0.22824672  0.47769451  0.83150047    -0.71200
O136        O  0.21873795  0.54964066  0.82657072    -0.74800
Al137      Al  0.23795273  0.51828788  0.87164459     1.49000
C138        C  0.20598855  0.58168815  0.83448815     0.92500
O139        O  0.12673388  0.54274369  0.88121819    -0.81000
O140        O  0.17785916  0.47811942  0.97158298    -0.74600
Al141      Al  0.17014758  0.55531691  0.91638492     1.90100
O142        O  0.12498411  0.48567499  0.90702755    -0.73600
O143        O  0.22158401  0.44328295  0.91381746    -0.73500
O144        O  0.17110358  0.46109962  0.84794570    -0.79100
O145        O  0.26275281  0.48787974  0.91407848    -0.77300
O146        O  0.19465505  0.51486313  0.89905457    -1.13500
O147        O  0.25558233  0.55941486  0.90604945    -0.72700
C148        C  0.24379454  0.57412183  0.94150870     0.98100
C149        C  0.10894978  0.51301006  0.88875342     0.94400
Al150      Al  0.17544319  0.47028519  0.90927672     1.55600
O151        O  0.18697692  0.58730015  0.86914003    -0.77300
C152        C  0.25373293  0.45503144  0.92321576     0.98600
C153        C  0.16179968  0.50508717  0.99099507     0.93500
O154        O  0.14995526  0.53284101  0.96892602    -0.82600
O155        O  0.41324848  0.74398449  0.58519268    -0.82100
C156        C  0.50888818  0.76030889  0.73032809     0.97300
O157        O  0.49751763  0.72866003  0.71745159    -0.71200
O158        O  0.42488888  0.73178800  0.71248551    -0.74800
Al159      Al  0.46191179  0.71714736  0.67143285     1.49000
C160        C  0.39337695  0.74470071  0.70204889     0.92500
O161        O  0.43064596  0.82719211  0.66184890    -0.81000
O162        O  0.50496619  0.78315324  0.57857516    -0.74600
Al163      Al  0.42380794  0.78404099  0.62465189     1.90100
O164        O  0.48963605  0.83347382  0.64478461    -0.73600
O165        O  0.53857609  0.74045019  0.63692616    -0.73500
O166        O  0.51370353  0.78641963  0.70306637    -0.79100
O167        O  0.49784598  0.69584254  0.63333576    -0.77300
O168        O  0.46446769  0.76161596  0.64603295    -1.13500
O169        O  0.42588093  0.69775663  0.63061899    -0.72700
C170        C  0.41174185  0.70981021  0.59478042     0.98100
C171        C  0.45988659  0.84678411  0.66038146     0.94400
Al172      Al  0.50835996  0.78406248  0.64125600     1.55600
O173        O  0.38973945  0.76443230  0.66757870    -0.77300
C174        C  0.53011754  0.70766647  0.62620907     0.98600
C175        C  0.47810084  0.79678467  0.55656336     0.93500
O176        O  0.44853476  0.80719543  0.57574190    -0.82600
C177        C  0.24284235  0.67718039  0.80626111    -0.27900
C178        C  0.26665228  0.66807276  0.77114566     0.01700
C179        C  0.26412267  0.63269998  0.75117889     0.29000
C180        C  0.24055893  0.60574633  0.76908163    -0.19700
C181        C  0.21925020  0.61343706  0.80718995    -0.29100
C182        C  0.21902555  0.65027737  0.82419313     0.43900
C183        C  0.29707419  0.69358939  0.75867688     0.05000
O184        O  0.28696142  0.62321675  0.71651385    -0.57600
H185        H  0.24121544  0.57788238  0.75509390     0.18000
O186        O  0.19767209  0.65970516  0.86020981    -0.64300
H187        H  0.24425674  0.70456325  0.82145239     0.16400
C188        C  0.29317367  0.71824695  0.72282995     0.28700
C189        C  0.32425111  0.73772151  0.70731859    -0.25200
C190        C  0.35976611  0.73247102  0.72673087    -0.24500
C191        C  0.36282940  0.70970531  0.76490545     0.40100
C192        C  0.33166341  0.69040738  0.78034631    -0.26900
O193        O  0.25942403  0.72239530  0.70169647    -0.58800
H194        H  0.32090752  0.75501401  0.67810730     0.15800
O195        O  0.39652592  0.70411027  0.78574485    -0.60300
H196        H  0.33486330  0.67155172  0.80819776     0.14200
H197        H  0.21465260  0.65790149  0.88630750     0.46100
H198        H  0.25923235  0.70321835  0.67785254     0.41400
H199        H  0.39935904  0.72545089  0.80648556     0.44900
H200        H  0.27223436  0.62873803  0.68929056     0.36400
C201        C  0.34042839  0.57093457  0.47585201    -0.27900
C202        C  0.32820958  0.60735444  0.48464325     0.01700
C203        C  0.29246227  0.61850262  0.47052067     0.29800
C204        C  0.26911585  0.59308997  0.44881170    -0.19700
C205        C  0.28075669  0.55615250  0.44098397    -0.29100
C206        C  0.31715127  0.54541873  0.45408457     0.43900
C207        C  0.35172238  0.63270240  0.51150721     0.05000
O208        O  0.27963261  0.65384872  0.47910632    -0.57600
H209        H  0.24144396  0.60222146  0.43901685     0.18000
O210        O  0.32986185  0.50975529  0.44744830    -0.64300
H211        H  0.36795267  0.56208027  0.48660699     0.16400
C212        C  0.36116850  0.62352190  0.55556268     0.28700
C213        C  0.38112778  0.64872142  0.58186184    -0.25200
C214        C  0.39222531  0.68334665  0.56488048    -0.24500
C215        C  0.38364402  0.69209533  0.52020712     0.40100
C216        C  0.36342074  0.66682539  0.49393198    -0.26900
O217        O  0.34919093  0.59080935  0.57395406    -0.58800
H218        H  0.38714825  0.64136439  0.61608987     0.15800
O219        O  0.39555104  0.72474434  0.50159179    -0.60300
H220        H  0.35664734  0.67393797  0.45982020     0.14200
H221        H  0.34283733  0.51035006  0.41845399     0.46100
H222        H  0.37106102  0.57384412  0.57307489     0.41400
H223        H  0.37395212  0.74199536  0.50341161     0.44900
H224        H  0.26744604  0.65231670  0.50853218     0.36400
C225        C  0.20898458  0.46025041  0.69579822    -0.27900
C226        C  0.17274715  0.46894487  0.68132210     0.01700
C227        C  0.14368741  0.47109199  0.71230064     0.29800
C228        C  0.15146023  0.46630080  0.75745678    -0.19700
C229        C  0.18820945  0.46007458  0.77232103    -0.29100
C230        C  0.21689746  0.45596821  0.74096532     0.43900
C231        C  0.16587665  0.47601156  0.63379569     0.05000
O232        O  0.10800320  0.47960671  0.69900117    -0.57600
H233        H  0.12905285  0.47006036  0.78105246     0.18000
O234        O  0.25300368  0.44942300  0.75414557    -0.64300
H235        H  0.23137996  0.45759750  0.67200291     0.16400
C236        C  0.18606995  0.50348822  0.61117475     0.28700
C237        C  0.18220171  0.50700217  0.56513969    -0.25200
C238        C  0.15875141  0.48292175  0.54113462    -0.24500
C239        C  0.13664335  0.45710218  0.56440805     0.40100
C240        C  0.14044336  0.45377290  0.61040115    -0.26900
O241        O  0.20976825  0.52683192  0.63387098    -0.58800
H242        H  0.19918993  0.52721782  0.54803823     0.15800
O243        O  0.11253589  0.43372373  0.54245084    -0.60300
H244        H  0.12461399  0.43269222  0.62761598     0.14200
H245        H  0.25438407  0.42227065  0.75991889     0.46100
H246        H  0.23523162  0.51776157  0.62697324     0.41400
H247        H  0.08940441  0.44853288  0.53807434     0.44900
H248        H  0.10671315  0.50721626  0.69902205     0.36400
C249        C  0.17328165  0.48023053  0.11257882    -0.27900
C250        C  0.16328848  0.51404574  0.13280846     0.01700
C251        C  0.14802952  0.54283681  0.10697737     0.29800
C252        C  0.14565374  0.53863191  0.06085083    -0.19700
C253        C  0.15811231  0.50571169  0.03994654    -0.29100
C254        C  0.17038509  0.47570622  0.06653541     0.43900
C255        C  0.17209401  0.51979826  0.18018938     0.05000
O256        O  0.13830796  0.57622102  0.12609756    -0.57600
H257        H  0.13577659  0.56204154  0.04135325     0.18000
O258        O  0.18137814  0.44252868  0.04792631    -0.64300
H259        H  0.18451005  0.45766816  0.13251475     0.16400
C260        C  0.14390987  0.52503312  0.21176922     0.28700
C261        C  0.15318496  0.52643972  0.25694871    -0.25200
C262        C  0.19041324  0.52210193  0.27122029    -0.24500
C263        C  0.21878625  0.51964861  0.23911447     0.40100
C264        C  0.20943366  0.51822542  0.19403093    -0.26900
O265        O  0.10716203  0.52684009  0.19901989    -0.58800
H266        H  0.13085903  0.52846181  0.28085733     0.15800
O267        O  0.25558436  0.51677292  0.25132739    -0.60300
H268        H  0.23136306  0.51486834  0.16972630     0.14200
H269        H  0.15830663  0.42753705  0.04545229     0.46100
H270        H  0.09859898  0.50061309  0.19807684     0.41400
H271        H  0.26395489  0.54278244  0.25610639     0.44900
H272        H  0.11068807  0.57610046  0.12718364     0.36400
C273        C  0.32208159  0.41541025  0.00691587    -0.27900
C274        C  0.32685149  0.37893541  0.99064500     0.01700
C275        C  0.30920683  0.36863139  0.95038862     0.29800
C276        C  0.28576676  0.39386564  0.92840741    -0.19700
C277        C  0.28055941  0.42997232  0.94514389    -0.29100
C278        C  0.29933733  0.44095862  0.98424885     0.43900
C279        C  0.34808546  0.35110685  0.01718985     0.05000
O280        O  0.31429961  0.33376343  0.93255216    -0.57600
H281        H  0.27158179  0.38523464  0.89815828     0.18000
O282        O  0.29435896  0.47603812  0.00157921    -0.64300
H283        H  0.33492792  0.42373509  0.03808645     0.16400
C284        C  0.38424445  0.35847605  0.03332482     0.28700
C285        C  0.40305361  0.33185306  0.05916413    -0.25200
C286        C  0.38622047  0.29769652  0.06981707    -0.24500
C287        C  0.34998496  0.29042837  0.05342104     0.40100
C288        C  0.33137220  0.31695856  0.02745245    -0.26900
O289        O  0.40187956  0.39107625  0.02276459    -0.58800
H290        H  0.43090634  0.33817089  0.07104492     0.15800
O291        O  0.33221349  0.25765418  0.06271382    -0.60300
H292        H  0.30331660  0.31105209  0.01595304     0.14200
H293        H  0.27180542  0.47434431  0.02035332     0.46100
H294        H  0.40209423  0.40604085  0.05057680     0.41400
H295        H  0.31673381  0.26313589  0.08914677     0.44900
H296        H  0.33825549  0.33505494  0.91641601     0.36400
C297        C  0.28406777  0.25671087  0.22486582    -0.27900
C298        C  0.28803666  0.27770402  0.26398274     0.01700
C299        C  0.32251626  0.27789447  0.28666557     0.29800
C300        C  0.35317663  0.25926199  0.26852451    -0.19700
C301        C  0.34976836  0.23991376  0.22813242    -0.29100
C302        C  0.31464782  0.23751855  0.20710774     0.43900
C303        C  0.25835664  0.30371534  0.27791773     0.05000
O304        O  0.32710889  0.29837835  0.32494250    -0.57600
H305        H  0.38021681  0.26186379  0.28452854     0.18000
O306        O  0.31094537  0.22016836  0.16662924    -0.64300
H307        H  0.25777771  0.25684559  0.20690577     0.16400
C308        C  0.25316413  0.33747532  0.25506275     0.28700
C309        C  0.23307247  0.36649754  0.27489359    -0.25200
C310        C  0.21757107  0.36212636  0.31731390    -0.24500
C311        C  0.21903775  0.32661781  0.33756149     0.40100
C312        C  0.23989100  0.29794237  0.31810319    -0.26900
O313        O  0.27104765  0.34375872  0.21566620    -0.58800
H314        H  0.23205371  0.39332340  0.25850770     0.15800
O315        O  0.20385446  0.32070466  0.37863736    -0.60300
H316        H  0.24366476  0.27194792  0.33581378     0.14200
H317        H  0.30501121  0.19389896  0.17365069     0.46100
H318        H  0.25258133  0.33733038  0.19220866     0.41400
H319        H  0.17753115  0.31393156  0.37263059     0.44900
H320        H  0.33449573  0.32357555  0.31496635     0.36400
C321        C  0.01403676  0.51495941  0.83132512    -0.27900
C322        C  0.99369994  0.49130786  0.85948517     0.01700
C323        C  0.01126571  0.47717214  0.89796493     0.29800
C324        C  0.04832008  0.48560936  0.90702186    -0.19700
C325        C  0.06883568  0.50880742  0.87891033    -0.29100
C326        C  0.05135157  0.52398925  0.84105059     0.43900
C327        C  0.95345340  0.48367711  0.85158282     0.05000
O328        O  0.99229291  0.45549545  0.92761645    -0.57600
H329        H  0.06110730  0.47392493  0.93665650     0.18000
O330        O  0.07053778  0.54689762  0.81301949    -0.64300
H331        H  0.00109276  0.52623790  0.80162349     0.16400
C332        C  0.92799738  0.51325419  0.84621189     0.28700
C333        C  0.88991218  0.50689843  0.85124011    -0.25200
C334        C  0.87642440  0.47133871  0.86192405    -0.24500
C335        C  0.90135954  0.44100221  0.86245489     0.40100
C336        C  0.93957445  0.44727644  0.85682635    -0.26900
O337        O  0.94016835  0.54913445  0.84105070    -0.58800
H338        H  0.87104547  0.53053161  0.84964282     0.15800
O339        O  0.88940229  0.40592698  0.87299520    -0.60300
H340        H  0.95871127  0.42397677  0.85989059     0.14200
H341        H  0.08142814  0.53011859  0.79024112     0.46100
H342        H  0.93588137  0.55492603  0.80919576     0.41400
H343        H  0.88231669  0.39434105  0.84417306     0.44900
H344        H  0.97981452  0.47332636  0.94796389     0.36400
C345        C  0.57361378  0.34848657  0.07791578    -0.27900
C346        C  0.60221304  0.33164391  0.05331475     0.01700
C347        C  0.60582868  0.29264063  0.05344453     0.29800
C348        C  0.58099569  0.27099526  0.07776870    -0.19700
C349        C  0.55208520  0.28761290  0.10233915    -0.29100
C350        C  0.54875342  0.32683821  0.10252302     0.43900
C351        C  0.62777526  0.35466420  0.02665930     0.05000
O352        O  0.63314704  0.27535800  0.02912747    -0.57600
H353        H  0.58415316  0.24096749  0.07686990     0.18000
O354        O  0.52036223  0.34425145  0.12484581    -0.64300
H355        H  0.57048768  0.37852406  0.07788373     0.16400
C356        C  0.61446620  0.37535684  0.99023876     0.28700
C357        C  0.63946120  0.39471085  0.96341907    -0.25200
C358        C  0.67800160  0.39428176  0.97263364    -0.24500
C359        C  0.69105388  0.37449996  0.01025071     0.40100
C360        C  0.66602399  0.35461321  0.03653320    -0.26900
O361        O  0.57728993  0.37525397  0.97926906    -0.58800
H362        H  0.62853468  0.40979849  0.93500622     0.15800
O363        O  0.72826393  0.37330775  0.02095014    -0.60300
H364        H  0.67653293  0.33885148  0.06465190     0.14200
H365        H  0.53118789  0.35134366  0.15410032     0.46100
H366        H  0.56704650  0.39851468  0.99233696     0.41400
H367        H  0.73220626  0.39433679  0.04194225     0.44900
H368        H  0.62213868  0.27173610  0.99906650     0.36400
C369        C  0.51277036  0.01684916  0.66297149    -0.27900
C370        C  0.47841387  0.00472406  0.67999863     0.01700
C371        C  0.45259632  0.03143842  0.69509926     0.29800
C372        C  0.46038609  0.06941748  0.69063335    -0.19700
C373        C  0.49385032  0.08146934  0.67153964    -0.29100
C374        C  0.52068097  0.05491055  0.65897752     0.43900
C375        C  0.47002710  0.96418401  0.68107504     0.05000
O376        O  0.42015203  0.02063574  0.71515293    -0.57600
H377        H  0.43966212  0.08963725  0.70108398     0.18000
O378        O  0.55331642  0.06568973  0.63950066    -0.64300
H379        H  0.53305063  0.99669276  0.65126980     0.16400
C380        C  0.43737159  0.94932526  0.66134289     0.28700
C381        C  0.43239334  0.91060759  0.65878262    -0.25200
C382        C  0.46030541  0.88629988  0.67402088    -0.24500
C383        C  0.49230389  0.90115864  0.69494493     0.40100
C384        C  0.49664916  0.93967921  0.69892155    -0.26900
O385        O  0.41137246  0.97217613  0.64172155    -0.58800
H386        H  0.40813236  0.89965079  0.64159544     0.15800
O387        O  0.52001767  0.87816412  0.71067849    -0.60300
H388        H  0.52172341  0.95047867  0.71449665     0.14200
H389        H  0.57106155  0.06944476  0.66452715     0.46100
H390        H  0.42020182  0.97581174  0.61087002     0.41400
H391        H  0.53988254  0.87885999  0.68793957     0.44900
H392        H  0.39965486  0.02983422  0.69571056     0.36400
C393        C  0.38863745  0.34325164  0.56343647    -0.27900
C394        C  0.35143692  0.33161293  0.56164738     0.01700
C395        C  0.34092246  0.29917241  0.58418384     0.29800
C396        C  0.36781571  0.27807071  0.60686426    -0.19700
C397        C  0.40544526  0.28906386  0.60793658    -0.29100
C398        C  0.41549476  0.32255543  0.58675557     0.43900
C399        C  0.32440455  0.35210715  0.53360623     0.05000
O400        O  0.30487569  0.28669389  0.58190899    -0.57600
H401        H  0.35920684  0.25253773  0.62281423     0.18000
O402        O  0.45169801  0.33451802  0.58675626    -0.64300
H403        H  0.39696434  0.36823471  0.54607663     0.16400
C404        C  0.29451975  0.37202981  0.55237271     0.28700
C405        C  0.26905906  0.39074957  0.52474954    -0.25200
C406        C  0.27339281  0.39032618  0.47834063    -0.24500
C407        C  0.30335403  0.37015889  0.45970029     0.40100
C408        C  0.32863271  0.35143936  0.48733843    -0.26900
O409        O  0.29022310  0.37363093  0.59762217    -0.58800
H410        H  0.24631585  0.40620672  0.53966790     0.15800
O411        O  0.30798357  0.36813998  0.41449394    -0.60300
H412        H  0.35145955  0.33597735  0.47259903     0.14200
H413        H  0.45399869  0.35092469  0.61324832     0.46100
H414        H  0.30502450  0.39545342  0.60746153     0.41400
H415        H  0.29155668  0.34755876  0.40438871     0.44900
H416        H  0.29354614  0.29403736  0.61063554     0.36400
C417        C  0.69351408  0.33185608  0.75349942    -0.27900
C418        C  0.68941776  0.29999905  0.77996409     0.01700
C419        C  0.70820499  0.29783082  0.82096201     0.29800
C420        C  0.72869156  0.32835848  0.83643578    -0.19700
C421        C  0.72969746  0.36174482  0.81205738    -0.29100
C422        C  0.71343043  0.36268589  0.76928001     0.43900
C423        C  0.66220311  0.27135300  0.76627735     0.05000
O424        O  0.70573510  0.26639173  0.84658351    -0.57600
H425        H  0.74112696  0.32683410  0.86933234     0.18000
O426        O  0.71467806  0.39433089  0.74390520    -0.64300
H427        H  0.67930158  0.33366570  0.72164589     0.16400
C428        C  0.62872201  0.26705299  0.78983204     0.28700
C429        C  0.59969451  0.24602987  0.77140267    -0.25200
C430        C  0.60337244  0.22944984  0.72925029    -0.24500
C431        C  0.63813970  0.23123232  0.70756040     0.40100
C432        C  0.66714660  0.25220068  0.72612205    -0.26900
O433        O  0.62300485  0.28569032  0.82913929    -0.58800
H434        H  0.57324996  0.24515965  0.78854813     0.15800
O435        O  0.64310849  0.21546090  0.66637892    -0.60300
H436        H  0.69281180  0.25537910  0.70778098     0.14200
H437        H  0.73884658  0.39300011  0.72820988     0.46100
H438        H  0.61148265  0.30982418  0.82062030     0.41400
H439        H  0.63695430  0.23545117  0.64479461     0.44900
H440        H  0.68945417  0.27333332  0.87185572     0.36400
C441        C  0.50732001  0.15117689  0.43847134    -0.27900
C442        C  0.48890456  0.17993412  0.41599924     0.01700
C443        C  0.46460081  0.20383740  0.43918658     0.29800
C444        C  0.46018235  0.19977229  0.48497461    -0.19700
C445        C  0.47999284  0.17208664  0.50806627    -0.29100
C446        C  0.50276898  0.14689093  0.48420727     0.43900
C447        C  0.49427479  0.18462497  0.36804215     0.05000
O448        O  0.44585763  0.23187156  0.41749795    -0.57600
H449        H  0.44280112  0.21953498  0.50271441     0.18000
O450        O  0.52160184  0.11866825  0.50542307    -0.64300
H451        H  0.52543869  0.13223943  0.42052713     0.16400
C452        C  0.52760816  0.19921903  0.35089835     0.28700
C453        C  0.52965137  0.20858397  0.30570563    -0.25200
C454        C  0.49863094  0.20314490  0.27799338    -0.24500
C455        C  0.46638459  0.18614392  0.29480744     0.40100
C456        C  0.46430282  0.17720637  0.33960266    -0.26900
O457        O  0.55710957  0.20689834  0.37864248    -0.58800
H458        H  0.55446890  0.22174408  0.29296270     0.15800
O459        O  0.43592968  0.17996535  0.26796032    -0.60300
H460        H  0.43872871  0.16567372  0.35255524     0.14200
H461        H  0.50278168  0.09895717  0.51016158     0.46100
H462        H  0.57407427  0.18514956  0.37581702     0.41400
H463        H  0.43900318  0.15414845  0.25673382     0.44900
H464        H  0.46381915  0.25274672  0.41588065     0.36400
C465        C  0.43424795  0.15943586  0.93942397    -0.27900
C466        C  0.46394667  0.17673112  0.91797151     0.01700
C467        C  0.49540656  0.18804422  0.94265864     0.29800
C468        C  0.49588168  0.18395987  0.98886903    -0.19700
C469        C  0.46491815  0.16915775  0.01071550    -0.29100
C470        C  0.43438071  0.15590701  0.98558924     0.43900
C471        C  0.46047968  0.18510486  0.87032628     0.05000
O472        O  0.52494636  0.20471994  0.92213729    -0.57600
H473        H  0.51927898  0.19478579  0.00783203     0.18000
O474        O  0.40412985  0.14041476  0.00605861    -0.64300
H475        H  0.41004263  0.15042482  0.92055394     0.16400
C476        C  0.45789525  0.15630921  0.83883237     0.28700
C477        C  0.45408536  0.16488885  0.79380218    -0.25200
C478        C  0.45281339  0.20216603  0.77949564    -0.24500
C479        C  0.45453064  0.23101462  0.81144609     0.40100
C480        C  0.45817298  0.22229644  0.85654660    -0.26900
O481        O  0.46104313  0.11978130  0.85162566    -0.58800
H482        H  0.45370499  0.14219380  0.76993156     0.15800
O483        O  0.45257815  0.26772219  0.79906619    -0.60300
H484        H  0.45937846  0.24462338  0.88088031     0.14200
H485        H  0.38465472  0.16014678  0.00594970     0.46100
H486        H  0.43512725  0.11033882  0.85248776     0.41400
H487        H  0.47873097  0.27653797  0.79916328     0.44900
H488        H  0.54096917  0.18389798  0.91184327     0.36400
C489        C  0.00892698  0.44945845  0.37136239    -0.27900
C490        C  0.99796927  0.48318579  0.35132301     0.01700
C491        C  0.02536030  0.50850845  0.33787652     0.29800
C492        C  0.06278819  0.50126799  0.34744433    -0.19700
C493        C  0.07357783  0.46857681  0.36970679    -0.29100
C494        C  0.04656908  0.44189079  0.38022350     0.43900
C495        C  0.95800466  0.49335812  0.34955962     0.05000
O496        O  0.01565988  0.54124081  0.31736996    -0.57600
H497        H  0.08336757  0.52204679  0.33911226     0.18000
O498        O  0.05617081  0.41027792  0.40314444    -0.64300
H499        H  0.98811351  0.42992254  0.38256463     0.16400
C500        C  0.93171283  0.46899565  0.33068046     0.28700
C501        C  0.89373719  0.47551601  0.33713177    -0.25200
C502        C  0.88148122  0.50618645  0.36228360    -0.24500
C503        C  0.90753358  0.53230220  0.37796126     0.40100
C504        C  0.94563610  0.52567361  0.37173564    -0.26900
O505        O  0.94300553  0.43833353  0.30682609    -0.58800
H506        H  0.87385626  0.45529631  0.32468538     0.15800
O507        O  0.89641389  0.56198580  0.40353845    -0.60300
H508        H  0.96561107  0.54452222  0.38681330     0.14200
H509        H  0.05913593  0.39069602  0.38007353     0.46100
H510        H  0.93797688  0.41661555  0.32613206     0.41400
H511        H  0.89235284  0.58265537  0.38225399     0.44900
H512        H  0.01394646  0.53499583  0.28525381     0.36400
C513        C  0.59199180  0.34226873  0.54154063    -0.27900
C514        C  0.61581004  0.32690560  0.50946397     0.01700
C515        C  0.61876788  0.28779231  0.50598957     0.29800
C516        C  0.59829928  0.26493942  0.53437430    -0.19700
C517        C  0.57440208  0.28036818  0.56646604    -0.29100
C518        C  0.57112043  0.31950860  0.56944031     0.43900
C519        C  0.63833521  0.35212978  0.48131263     0.05000
O520        O  0.64157884  0.27152713  0.47501863    -0.57600
H521        H  0.60135114  0.23499546  0.53134837     0.18000
O522        O  0.54777819  0.33599871  0.59965748    -0.64300
H523        H  0.58986245  0.37220971  0.54551610     0.16400
C524        C  0.62217579  0.38355037  0.46054739     0.28700
C525        C  0.64463338  0.40911606  0.43834457    -0.25200
C526        C  0.68330531  0.40356947  0.43535446    -0.24500
C527        C  0.69920153  0.37118511  0.45429627     0.40100
C528        C  0.67683176  0.34607813  0.47729980    -0.26900
O529        O  0.58447430  0.38982729  0.46217878    -0.58800
H530        H  0.63169213  0.43349420  0.42360630     0.15800
O531        O  0.73674864  0.36421238  0.45179436    -0.60300
H532        H  0.68996855  0.32244945  0.49343096     0.14200
H533        H  0.52482711  0.34208493  0.58260167     0.46100
H534        H  0.57375634  0.37444546  0.43782345     0.41400
H535        H  0.74776385  0.37644305  0.47840399     0.44900
H536        H  0.62672361  0.27103737  0.44709540     0.36400
C537        C  0.81835514  0.51130378  0.60240473    -0.27900
C538        C  0.79136195  0.49063484  0.62495562     0.01700
C539        C  0.77211926  0.46219304  0.60188730     0.29800
C540        C  0.77702577  0.45765014  0.55615154    -0.19700
C541        C  0.80153716  0.48073443  0.53297301    -0.29100
C542        C  0.82409342  0.50595618  0.55698111     0.43900
C543        C  0.78153619  0.50055025  0.67135892     0.05000
O544        O  0.74701308  0.43995050  0.62326603    -0.57600
H545        H  0.75977918  0.43771519  0.53843898     0.18000
O546        O  0.85016774  0.52728483  0.53591167    -0.64300
H547        H  0.83364334  0.53314887  0.61933813     0.16400
C548        C  0.80908119  0.50618320  0.70427834     0.28700
C549        C  0.79858072  0.51325075  0.74819233    -0.25200
C550        C  0.76077187  0.51433562  0.76025741    -0.24500
C551        C  0.73331177  0.51092394  0.72680341     0.40100
C552        C  0.74381818  0.50454970  0.68280005    -0.26900
O553        O  0.84617967  0.50174850  0.69468420    -0.58800
H554        H  0.82029704  0.51524965  0.77332596     0.15800
O555        O  0.69612009  0.51194549  0.73690292    -0.60300
H556        H  0.72224744  0.50183042  0.65760638     0.14200
H557        H  0.87232611  0.51086799  0.53281129     0.46100
H558        H  0.85714265  0.52700468  0.69723944     0.41400
H559        H  0.68914290  0.53869493  0.73605930     0.44900
H560        H  0.76206978  0.41929405  0.63601092     0.36400
C561        C  0.73831287  0.45598968  0.18664186    -0.27900
C562        C  0.77448070  0.46179192  0.17084094     0.01700
C563        C  0.80479110  0.46146171  0.20071169     0.29800
C564        C  0.79845647  0.45679448  0.24605268    -0.19700
C565        C  0.76207961  0.45282627  0.26230545    -0.29100
C566        C  0.73193834  0.45147561  0.23202341     0.43900
C567        C  0.77999167  0.46927454  0.12325675     0.05000
O568        O  0.84021259  0.46885645  0.18632032    -0.57600
H569        H  0.82197233  0.45871782  0.26871896     0.18000
O570        O  0.69603258  0.44736040  0.24645392    -0.64300
H571        H  0.71485458  0.45572643  0.16372905     0.16400
C572        C  0.80386264  0.44677112  0.09781705     0.28700
C573        C  0.80771876  0.45355632  0.05256988    -0.25200
C574        C  0.78699320  0.48188195  0.03147175    -0.24500
C575        C  0.76334842  0.50473221  0.05714178     0.40100
C576        C  0.76013729  0.49838212  0.10277837    -0.26900
O577        O  0.82225747  0.41700768  0.11641230    -0.58800
H578        H  0.82574944  0.43527372  0.03358235     0.15800
O579        O  0.74137584  0.53155977  0.03771581    -0.60300
H580        H  0.74144992  0.51571411  0.12212905     0.14200
H581        H  0.69259441  0.42011759  0.24975222     0.46100
H582        H  0.80412241  0.39625817  0.11558734     0.41400
H583        H  0.75644995  0.55465002  0.03883362     0.44900
H584        H  0.85457703  0.44550110  0.19101146     0.36400
C585        C  0.61502507  0.67405460  0.56276885    -0.27900
C586        C  0.60794957  0.63582555  0.55983141     0.01700
C587        C  0.57615136  0.62100697  0.57996121     0.29800
C588        C  0.55147353  0.64458264  0.60241261    -0.19700
C589        C  0.55798325  0.68313619  0.60482398    -0.29100
C590        C  0.59035943  0.69776262  0.58501461     0.43900
C591        C  0.63285740  0.61205414  0.53334032     0.05000
O592        O  0.56929583  0.58346164  0.57822861    -0.57600
H593        H  0.52699315  0.63265560  0.61757701     0.18000
O594        O  0.59728374  0.73531687  0.58516686    -0.64300
H595        H  0.63930286  0.68565553  0.54677275     0.16400
C596        C  0.62120163  0.59869329  0.49160915     0.28700
C597        C  0.64565660  0.57777953  0.46562992    -0.25200
C598        C  0.68216076  0.57011426  0.48049447    -0.24500
C599        C  0.69346763  0.58291431  0.52299019     0.40100
C600        C  0.66889525  0.60405601  0.54885952    -0.26900
O601        O  0.58618302  0.60665303  0.47554915    -0.58800
H602        H  0.63617134  0.56838203  0.43320421     0.15800
O603        O  0.72853593  0.57560803  0.53931520    -0.60300
H604        H  0.67798721  0.61437489  0.58105305     0.14200
H605        H  0.61416033  0.73953368  0.61091790     0.46100
H606        H  0.58880369  0.63039020  0.45910664     0.41400
H607        H  0.72659232  0.55114448  0.55433722     0.44900
H608        H  0.55037708  0.58023900  0.55430591     0.36400
C609        C  0.45801687  0.94346003  0.19913781    -0.27900
C610        C  0.48225112  0.96955435  0.18072065     0.01700
C611        C  0.51534144  0.95682878  0.16040367     0.29800
C612        C  0.52292413  0.91838448  0.15711081    -0.19700
C613        C  0.49756684  0.89223680  0.17349988    -0.29100
C614        C  0.46546712  0.90519266  0.19580136     0.43900
C615        C  0.47190274  0.00978242  0.18105240     0.05000
O616        O  0.53947970  0.98166367  0.14166790    -0.57600
H617        H  0.54729251  0.90901429  0.13910701     0.18000
O618        O  0.44009388  0.88043658  0.21233200    -0.64300
H619        H  0.43265737  0.95276667  0.21515613     0.16400
C620        C  0.44117269  0.02311278  0.15616745     0.28700
C621        C  0.43378512  0.06158644  0.15374908    -0.25200
C622        C  0.45651599  0.08733256  0.17638576    -0.24500
C623        C  0.48556510  0.07347304  0.20403129     0.40100
C624        C  0.49328213  0.03517716  0.20566799    -0.26900
O625        O  0.41978353  0.99894035  0.13159522    -0.58800
H626        H  0.41155319  0.07134085  0.13211716     0.15800
O627        O  0.50774559  0.09722535  0.22824085    -0.60300
H628        H  0.51648934  0.02528635  0.22571180     0.14200
H629        H  0.44273680  0.88208880  0.24514128     0.46100
H630        H  0.39828129  0.99298771  0.15079164     0.41400
H631        H  0.49346479  0.10289582  0.25555927     0.44900
H632        H  0.52961032  0.98605624  0.11122090     0.36400
C633        C  0.33915440  0.67805464  0.07940787    -0.27900
C634        C  0.35077912  0.64768192  0.05369511     0.01700
C635        C  0.38851901  0.63709155  0.05375868     0.29800
C636        C  0.41446082  0.65771114  0.07844246    -0.19700
C637        C  0.40314862  0.68911617  0.10306140    -0.29100
C638        C  0.36491716  0.69873320  0.10403021     0.43900
C639        C  0.32339495  0.62853186  0.02523067     0.05000
O640        O  0.40034185  0.60718481  0.02899126    -0.57600
H641        H  0.44360525  0.64978687  0.07715134     0.18000
O642        O  0.35240390  0.72881333  0.12799647    -0.64300
H643        H  0.31006360  0.68631724  0.07948035     0.16400
C644        C  0.29406519  0.60822446  0.04393763     0.28700
C645        C  0.26756965  0.59137369  0.01625535    -0.25200
C646        C  0.27008737  0.59459139  0.96991064    -0.24500
C647        C  0.29920096  0.61544318  0.95124217     0.40100
C648        C  0.32570466  0.63216126  0.97896184    -0.26900
O649        O  0.29201422  0.60354840  0.08909896    -0.58800
H650        H  0.24560900  0.57496110  0.03096758     0.15800
O651        O  0.30194705  0.61969863  0.90604706    -0.60300
H652        H  0.34793629  0.64829736  0.96441120     0.14200
H653        H  0.34850581  0.71928657  0.15850580     0.46100
H654        H  0.27310584  0.62186386  0.09924323     0.41400
H655        H  0.28531992  0.64099421  0.89864488     0.44900
H656        H  0.39954814  0.58564070  0.04950627     0.36400
C657        C  0.62122279  0.57150363  0.98672516    -0.27900
C658        C  0.62567979  0.60996404  0.98026346     0.01700
C659        C  0.65189313  0.62236196  0.94901982     0.29800
C660        C  0.67383579  0.59648446  0.92583666    -0.19700
C661        C  0.66977567  0.55805680  0.93280796    -0.29100
C662        C  0.64297985  0.54564234  0.96338834     0.43900
C663        C  0.60537729  0.63669318  0.00927130     0.05000
O664        O  0.65815998  0.65971914  0.94333487    -0.57600
H665        H  0.69459469  0.60658014  0.90289492     0.18000
O666        O  0.63890371  0.50840870  0.97222281    -0.64300
H667        H  0.60136520  0.56151276  0.01083964     0.16400
C668        C  0.58369127  0.66608307  0.99163907     0.28700
C669        C  0.56671088  0.69193971  0.02024371    -0.25200
C670        C  0.56995955  0.68819669  0.06658726    -0.24500
C671        C  0.59080306  0.65821616  0.08415558     0.40100
C672        C  0.60835333  0.63292237  0.05560973    -0.26900
O673        O  0.57840642  0.66942840  0.94661356    -0.58800
H674        H  0.55018744  0.71441477  0.00621659     0.15800
O675        O  0.59466931  0.65363573  0.12924162    -0.60300
H676        H  0.62488381  0.61051778  0.06977238     0.14200
H677        H  0.65818613  0.50259645  0.99503714     0.46100
H678        H  0.55686889  0.65319239  0.93946274     0.41400
H679        H  0.61602148  0.66959003  0.13801341     0.44900
H680        H  0.64860687  0.66554215  0.91309731     0.36400
C681        C  0.66329774  0.71228444  0.22923526    -0.27900
C682        C  0.65705915  0.69382615  0.26938231     0.01700
C683        C  0.62301336  0.69903102  0.29147621     0.29800
C684        C  0.59483172  0.72072390  0.27193949    -0.19700
C685        C  0.59997644  0.73721113  0.23007453    -0.29100
C686        C  0.63523540  0.73405876  0.20964124     0.43900
C687        C  0.68338886  0.66460547  0.28425509     0.05000
O688        O  0.61613703  0.68096305  0.33067682    -0.57600
H689        H  0.56803557  0.72257100  0.28820825     0.18000
O690        O  0.64136132  0.74860807  0.16825686    -0.64300
H691        H  0.68926169  0.70798935  0.21172927     0.16400
C692        C  0.68299360  0.62952311  0.26334817     0.28700
C693        C  0.70430807  0.60024316  0.28068679    -0.25200
C694        C  0.72596572  0.60511181  0.31945133    -0.24500
C695        C  0.72812926  0.64113041  0.33867608     0.40100
C696        C  0.70660235  0.67043103  0.32124245    -0.26900
O697        O  0.66034754  0.62309841  0.22717384    -0.58800
H698        H  0.70209567  0.57305527  0.26512858     0.15800
O699        O  0.74888590  0.64748893  0.37639761    -0.60300
H700        H  0.70702712  0.69740679  0.33753158     0.14200
H701        H  0.65051037  0.77425038  0.17380557     0.46100
H702        H  0.63579045  0.61636523  0.23969274     0.41400
H703        H  0.77398609  0.65430785  0.36561656     0.44900
H704        H  0.60557003  0.65651683  0.32186240     0.36400
C705        C  0.51576522  0.81745576  0.93879828    -0.27900
C706        C  0.49320777  0.79237274  0.91541978     0.01700
C707        C  0.46377772  0.77444658  0.93721417     0.29800
C708        C  0.45890453  0.77975233  0.98284198    -0.19700
C709        C  0.48307707  0.80305232  0.00700142    -0.29100
C710        C  0.51070391  0.82320253  0.98414693     0.43900
C711        C  0.50116950  0.78458437  0.86846454     0.05000
O712        O  0.44048402  0.75076094  0.91447925    -0.57600
H713        H  0.43748759  0.76408527  0.99964569     0.18000
O714        O  0.53422192  0.84718147  0.00609628    -0.64300
H715        H  0.53822403  0.83170122  0.92211140     0.16400
C716        C  0.50026083  0.81338411  0.83709512     0.28700
C717        C  0.50578084  0.80517685  0.79235135    -0.25200
C718        C  0.51219923  0.76837516  0.77815339    -0.24500
C719        C  0.51499203  0.73978659  0.80996833     0.40100
C720        C  0.50965558  0.74809292  0.85494304    -0.26900
O721        O  0.49118696  0.84911164  0.84946733    -0.58800
H722        H  0.50254393  0.82744624  0.76848316     0.15800
O723        O  0.52254994  0.70375939  0.79744981    -0.60300
H724        H  0.51134490  0.72591163  0.87923692     0.14200
H725        H  0.52082516  0.87138717  0.00668756     0.46100
H726        H  0.51502289  0.86297240  0.84934601     0.41400
H727        H  0.49817917  0.69083180  0.79785767     0.44900
H728        H  0.42148503  0.76709227  0.90034325     0.36400
C729        C  0.44590299  0.75425802  0.35318866    -0.27900
C730        C  0.46253090  0.78752381  0.36772080     0.01700
C731        C  0.47329474  0.81436131  0.33663986     0.29800
C732        C  0.46794381  0.80746117  0.29140836    -0.19700
C733        C  0.45195910  0.77394668  0.27663120    -0.29100
C734        C  0.44066513  0.74729110  0.30781745     0.43900
C735        C  0.46989037  0.79313024  0.41536776     0.05000
O736        O  0.49152823  0.84604404  0.35005020    -0.57600
H737        H  0.47836608  0.82746453  0.26771386     0.18000
O738        O  0.42554043  0.71406619  0.29431617    -0.64300
H739        H  0.43760218  0.73343327  0.37711601     0.16400
C740        C  0.45167330  0.82151082  0.43920126     0.28700
C741        C  0.45656851  0.82406518  0.48519130    -0.25200
C742        C  0.47955646  0.79851792  0.50781917    -0.24500
C743        C  0.49908006  0.77114522  0.48348668     0.40100
C744        C  0.49410107  0.76863515  0.43752128    -0.26900
O745        O  0.42789731  0.84584855  0.41812638    -0.58800
H746        H  0.44120501  0.84514058  0.50343150     0.15800
O747        O  0.52137757  0.74538227  0.50445996    -0.60300
H748        H  0.50832624  0.74680721  0.41921408     0.14200
H749        H  0.39864297  0.71936126  0.28959444     0.46100
H750        H  0.40353052  0.83294992  0.41689374     0.41400
H751        H  0.50448192  0.72478788  0.51274361     0.44900
H752        H  0.47310613  0.86651166  0.34649864     0.36400
loop_ 
_geom_bond_atom_site_label_1 
_geom_bond_atom_site_label_2 
_geom_bond_distance 
_geom_bond_site_symmetry_2 
_ccdc_geom_bond_type 
O1           C16   1.265       .  A
O1           Al9   1.907       .  S
C2           O12   1.268       .  A
C2            O3   1.262       .  A
C2          C733   1.464       .  S
O3           Al5   1.873       .  S
O4            C6   1.260       .  A
O4           Al5   1.898       .  S
Al5          O13   1.904       .  S
Al5          O15   1.900       .  S
Al5          O14   1.777       .  S
C6           O19   1.270       .  A
C6          C613   1.483       .  S
O7           C17   1.263       .  A
O7           Al9   1.920       .  S
O8           C21   1.264       .  A
O8          Al18   1.911       .  S
Al9          O22   1.910       .  S
Al9          O19   1.940       .  S
Al9          O14   1.775       .  S
O10          C17   1.258       .  A
O10         Al18   1.888       .  S
O11          C20   1.256       .  A
O11         Al18   1.896       .  S
O12         Al18   1.926       .  S
O13          C20   1.257       .  A
O14         Al18   1.777       .  S
O15          C16   1.267       .  A
C16         C709   1.472       .  S
C17         C685   1.484       .  S
C20         C637   1.478       .  S
C21          O22   1.264       .  A
C21         C670   1.478       .  S
O23          C38   1.265       .  A
O23         Al31   1.917       .  S
C24          O34   1.266       .  A
C24          O25   1.261       .  A
C24         C565   1.472       .  S
O25         Al27   1.874       .  S
O26          C28   1.262       .  A
O26         Al27   1.897       .  S
Al27         O35   1.908       .  S
Al27         O37   1.895       .  S
Al27         O36   1.778       .  S
C28          O41   1.265       .  A
C28         C502   1.468       .  S
O29          C39   1.262       .  A
O29         Al31   1.921       .  S
O30          C43   1.265       .  A
O30         Al40   1.908       .  S
Al31         O44   1.893       .  S
Al31         O41   1.912       .  S
Al31         O36   1.781       .  S
O32          C39   1.258       .  A
O32         Al40   1.890       .  S
O33          C42   1.257       .  A
O33         Al40   1.892       .  S
O34         Al40   1.917       .  S
O35          C42   1.258       .  A
O36         Al40   1.772       .  S
O37          C38   1.264       .  A
C38         C541   1.473       .  S
C39         C694   1.487       .  S
C42         C526   1.482       .  S
C43          O44   1.263       .  A
C43         C598   1.479       .  S
O45          C60   1.263       .  A
O45         Al53   1.897       .  S
C46          O56   1.264       .  A
C46          O47   1.269       .  A
C46         C478   1.476       .  S
O47         Al49   1.924       .  S
O48          C50   1.258       .  A
O48         Al49   1.887       .  S
Al49         O57   1.902       .  S
Al49         O59   1.909       .  S
Al49         O58   1.773       .  S
C50          O63   1.260       .  A
C50         C430   1.479       .  S
O51          C61   1.265       .  A
O51         Al53   1.922       .  S
O52          C65   1.268       .  A
O52         Al62   1.899       .  S
Al53         O66   1.911       .  S
Al53         O63   1.908       .  S
Al53         O58   1.780       .  S
O54          C61   1.258       .  A
O54         Al62   1.893       .  S
O55          C64   1.257       .  A
O55         Al62   1.907       .  S
O56         Al62   1.878       .  S
O57          C64   1.256       .  A
O58         Al62   1.779       .  S
O59          C60   1.264       .  A
C60         C517   1.484       .  S
C61         C373   1.474       .  S
C64         C397   1.485       .  S
C65          O66   1.266       .  A
C65         C445   1.470       .  S
O67          C82   1.265       .  A
O67         Al75   1.899       .  S
C68          O78   1.262       .  A
C68          O69   1.269       .  A
C68         C550   1.477       .  S
O69         Al71   1.926       .  S
O70          C72   1.257       .  A
O70         Al71   1.896       .  S
Al71         O79   1.894       .  S
Al71         O81   1.917       .  S
Al71         O80   1.770       .  S
C72          O85   1.258       .  A
C72         C421   1.477       .  S
O73          C83   1.267       .  A
O73         Al75   1.919       .  S
O74          C87   1.266       .  A
O74         Al84   1.904       .  S
Al75         O88   1.905       .  S
Al75         O85   1.898       .  S
Al75         O80   1.777       .  S
O76          C83   1.264       .  A
O76         Al84   1.904       .  S
O77          C86   1.257       .  A
O77         Al84   1.912       .  S
O78         Al84   1.874       .  S
O79          C86   1.255       .  A
O80         Al84   1.779       .  S
O81          C82   1.267       .  A
C82         C358   1.486       .  S
C83         C334   1.478       .  S
C86         C661   1.479       .  S
C87          O88   1.264       .  A
C87         C574   1.474   1_556  S
O89         C104   1.254       .  A
O89         Al97   1.853       .  S
C90         O100   1.259       .  A
C90          O91   1.269       .  A
C90         C454   1.460       .  S
O91         Al93   1.936       .  S
O92          C94   1.252       .  A
O92         Al93   1.866       .  S
Al93        O101   1.876       .  S
Al93        O103   1.917       .  S
Al93        O102   1.786       .  S
C94         O107   1.266       .  A
C94         C622   1.493       .  S
O95         C105   1.260       .  A
O95         Al97   1.905       .  S
O96         C109   1.265       .  A
O96        Al106   1.887       .  S
Al97        O110   1.942       .  S
Al97        O107   1.947       .  S
Al97        O102   1.787       .  S
O98         C105   1.258       .  A
O98        Al106   1.901       .  S
O99         C108   1.257       .  A
O99        Al106   1.919       .  S
O100       Al106   1.855       .  S
O101        C108   1.250       .  A
O102       Al106   1.789       .  S
O103        C104   1.264       .  A
C104        C469   1.466       .  S
C105        C301   1.468       .  S
C108        C349   1.484       .  S
C109        O110   1.273       .  A
C109        C286   1.486       .  S
O111        C126   1.262       .  A
O111       Al119   1.907       .  S
C112        O122   1.266       .  A
C112        O113   1.260       .  A
C112        C262   1.477       .  S
O113       Al115   1.877       .  S
O114        C116   1.263       .  A
O114       Al115   1.900       .  S
Al115       O123   1.908       .  S
Al115       O125   1.895       .  S
Al115       O124   1.778       .  S
C116        O129   1.265       .  A
C116        C493   1.469       .  S
O117        C127   1.259       .  A
O117       Al119   1.908       .  S
O118        C131   1.266       .  A
O118       Al128   1.917       .  S
Al119       O132   1.901       .  S
Al119       O129   1.910       .  S
Al119       O124   1.781       .  S
O120        C127   1.258       .  A
O120       Al128   1.894       .  S
O121        C130   1.257       .  A
O121       Al128   1.892       .  S
O122       Al128   1.918       .  S
O123        C130   1.260       .  A
O124       Al128   1.773       .  S
O125        C126   1.263       .  A
C126        C238   1.473       .  S
C127        C310   1.481       .  S
C130        C205   1.484       .  S
C131        O132   1.264       .  A
C131        C406   1.477       .  S
O133        C148   1.262       .  A
O133       Al141   1.893       .  S
C134        O144   1.261       .  A
C134        O135   1.267       .  A
C134        C229   1.469       .  S
O135       Al137   1.920       .  S
O136        C138   1.259       .  A
O136       Al137   1.889       .  S
Al137       O145   1.896       .  S
Al137       O147   1.907       .  S
Al137       O146   1.769       .  S
C138        O151   1.265       .  A
C138        C181   1.489       .  S
O139        C149   1.268       .  A
O139       Al141   1.930       .  S
O140        C153   1.267       .  A
O140       Al150   1.895       .  S
Al141       O154   1.925       .  S
Al141       O151   1.932       .  S
Al141       O146   1.773       .  S
O142        C149   1.261       .  A
O142       Al150   1.891       .  S
O143        C152   1.260       .  A
O143       Al150   1.919       .  S
O144       Al150   1.878       .  S
O145        C152   1.256       .  A
O146       Al150   1.774       .  S
O147        C148   1.263       .  A
C148        C646   1.466       .  S
C149        C325   1.476       .  S
C152        C277   1.469       .  S
C153        O154   1.269       .  A
C153        C253   1.479   1_556  S
O155        C170   1.263       .  A
O155       Al163   1.898       .  S
C156        O166   1.261       .  A
C156        O157   1.267       .  A
C156        C718   1.470       .  S
O157       Al159   1.921       .  S
O158        C160   1.258       .  A
O158       Al159   1.892       .  S
Al159       O167   1.888       .  S
Al159       O169   1.908       .  S
Al159       O168   1.775       .  S
C160        O173   1.263       .  A
C160        C190   1.490       .  S
O161        C171   1.267       .  A
O161       Al163   1.922       .  S
O162        C175   1.263       .  A
O162       Al172   1.888       .  S
Al163       O176   1.918       .  S
Al163       O173   1.922       .  S
Al163       O168   1.780       .  S
O164        C171   1.261       .  A
O164       Al172   1.897       .  S
O165        C174   1.257       .  A
O165       Al172   1.905       .  S
O166       Al172   1.869       .  S
O167        C174   1.255       .  A
O168       Al172   1.779       .  S
O169        C170   1.265       .  A
C170        C214   1.480       .  S
C171        C382   1.475       .  S
C174        C589   1.478       .  S
C175        O176   1.266       .  A
C175        C742   1.469       .  S
C177        C178   1.400       .  A
C177        C182   1.404       .  A
C177        H187   1.083       .  S
C178        C183   1.480       .  S
C178        C179   1.405       .  A
C179        C180   1.400       .  A
C179        O184   1.372       .  S
C180        C181   1.408       .  A
C180        H185   1.084       .  S
C181        C182   1.416       .  A
C182        O186   1.372       .  S
C183        C188   1.403       .  A
C183        C192   1.402       .  A
O184        H200   0.991       .  S
O186        H197   0.992       .  S
C188        C189   1.403       .  A
C188        O193   1.371       .  S
C189        C190   1.410       .  A
C189        H194   1.083       .  S
C190        C191   1.415       .  A
C191        C192   1.401       .  A
C191        O195   1.372       .  S
C192        H196   1.084       .  S
O193        H198   0.992       .  S
O195        H199   0.991       .  S
C201        C202   1.402       .  A
C201        C206   1.400       .  A
C201        H211   1.084       .  S
C202        C207   1.478       .  S
C202        C203   1.405       .  A
C203        C204   1.398       .  A
C203        O208   1.372       .  S
C204        C205   1.408       .  A
C204        H209   1.083       .  S
C205        C206   1.414       .  A
C206        O210   1.371       .  S
C207        C212   1.405       .  A
C207        C216   1.403       .  A
O208        H224   0.992       .  S
O210        H221   0.992       .  S
C212        C213   1.396       .  A
C212        O217   1.372       .  S
C213        C214   1.406       .  A
C213        H218   1.084       .  S
C214        C215   1.412       .  A
C215        C216   1.402       .  A
C215        O219   1.372       .  S
C216        H220   1.084       .  S
O217        H222   0.992       .  S
O219        H223   0.992       .  S
C225        C226   1.402       .  A
C225        C230   1.394       .  A
C225        H235   1.084       .  S
C226        C231   1.471       .  S
C226        C227   1.405       .  A
C227        C228   1.395       .  A
C227        O232   1.372       .  S
C228        C229   1.406       .  A
C228        H233   1.084       .  S
C229        C230   1.408       .  A
C230        O234   1.372       .  S
C231        C236   1.407       .  A
C231        C240   1.399       .  A
O232        H248   0.992       .  S
O234        H245   0.992       .  S
C236        C237   1.396       .  A
C236        O241   1.373       .  S
C237        C238   1.403       .  A
C237        H242   1.084       .  S
C238        C239   1.414       .  A
C239        C240   1.394       .  A
C239        O243   1.372       .  S
C240        H244   1.084       .  S
O241        H246   0.992       .  S
O243        H247   0.992       .  S
C249        C250   1.402       .  A
C249        C254   1.397       .  A
C249        H259   1.084       .  S
C250        C255   1.471       .  S
C250        C251   1.402       .  A
C251        C252   1.397       .  A
C251        O256   1.372       .  S
C252        C253   1.409       .  A
C252        H257   1.083       .  S
C253        C254   1.411       .  A
C254        O258   1.371       .  S
C255        C260   1.404       .  A
C255        C264   1.401       .  A
O256        H272   0.992       .  S
O258        H269   0.992       .  S
C260        C261   1.397       .  A
C260        O265   1.372       .  S
C261        C262   1.408       .  A
C261        H266   1.082       .  S
C262        C263   1.411       .  A
C263        C264   1.395       .  A
C263        O267   1.371       .  S
C264        H268   1.084       .  S
O265        H270   0.992       .  S
O267        H271   0.992       .  S
C273        C274   1.406   1_554  A
C273        C278   1.401   1_554  A
C273        H283   1.083       .  S
C274        C279   1.485   1_556  S
C274        C275   1.411       .  A
C275        C276   1.398       .  A
C275        O280   1.372       .  S
C276        C277   1.401       .  A
C276        H281   1.084       .  S
C277        C278   1.407       .  A
C278        O282   1.372   1_556  S
C279        C284   1.408       .  A
C279        C288   1.403       .  A
O280        H296   0.992       .  S
O282        H293   0.992       .  S
C284        C285   1.402       .  A
C284        O289   1.372       .  S
C285        C286   1.408       .  A
C285        H290   1.083       .  S
C286        C287   1.412       .  A
C287        C288   1.398       .  A
C287        O291   1.371       .  S
C288        H292   1.084       .  S
O289        H294   0.992       .  S
O291        H295   0.992       .  S
C297        C298   1.401       .  A
C297        C302   1.401       .  A
C297        H307   1.083       .  S
C298        C303   1.475       .  S
C298        C299   1.408       .  A
C299        C300   1.398       .  A
C299        O304   1.373       .  S
C300        C301   1.402       .  A
C300        H305   1.084       .  S
C301        C302   1.408       .  A
C302        O306   1.371       .  S
C303        C308   1.406       .  A
C303        C312   1.399       .  A
O304        H320   0.992       .  S
O306        H317   0.992       .  S
C308        C309   1.398       .  A
C308        O313   1.371       .  S
C309        C310   1.405       .  A
C309        H314   1.084       .  S
C310        C311   1.415       .  A
C311        C312   1.399       .  A
C311        O315   1.371       .  S
C312        H316   1.084       .  S
O313        H318   0.991       .  S
O315        H319   0.991       .  S
C321        C322   1.411   1_455  A
C321        C326   1.407       .  A
C321        H331   1.083       .  S
C322        C327   1.488       .  S
C322        C323   1.409   1_655  A
C323        C324   1.390       .  A
C323        O328   1.372   1_455  S
C324        C325   1.404       .  A
C324        H329   1.084       .  S
C325        C326   1.406       .  A
C326        O330   1.371       .  S
C327        C332   1.406       .  A
C327        C336   1.410       .  A
O328        H344   0.991       .  S
O330        H341   0.992       .  S
C332        C333   1.396       .  A
C332        O337   1.372       .  S
C333        C334   1.406       .  A
C333        H338   1.084       .  S
C334        C335   1.406       .  A
C335        C336   1.402       .  A
C335        O339   1.371       .  S
C336        H340   1.083       .  S
O337        H342   0.992       .  S
O339        H343   0.992       .  S
C345        C346   1.403       .  A
C345        C350   1.403       .  A
C345        H355   1.084       .  S
C346        C351   1.480       .  S
C346        C347   1.405       .  A
C347        C348   1.398       .  A
C347        O352   1.372       .  S
C348        C349   1.407       .  A
C348        H353   1.084       .  S
C349        C350   1.413       .  A
C350        O354   1.371       .  S
C351        C356   1.405   1_554  A
C351        C360   1.402       .  A
O352        H368   0.992   1_554  S
O354        H365   0.992       .  S
C356        C357   1.399       .  A
C356        O361   1.372       .  S
C357        C358   1.408       .  A
C357        H362   1.083       .  S
C358        C359   1.414   1_556  A
C359        C360   1.401       .  A
C359        O363   1.372       .  S
C360        H364   1.084       .  S
O361        H366   0.992       .  S
O363        H367   0.992       .  S
C369        C370   1.410       .  A
C369        C374   1.402       .  A
C369        H379   1.083   1_545  S
C370        C375   1.488   1_545  S
C370        C371   1.407       .  A
C371        C372   1.400       .  A
C371        O376   1.373       .  S
C372        C373   1.406       .  A
C372        H377   1.084       .  S
C373        C374   1.405       .  A
C374        O378   1.371       .  S
C375        C380   1.415       .  A
C375        C384   1.401       .  A
O376        H392   0.992       .  S
O378        H389   0.991       .  S
C380        C381   1.404       .  A
C380        O385   1.371       .  S
C381        C382   1.401       .  A
C381        H386   1.084       .  S
C382        C383   1.411       .  A
C383        C384   1.397       .  A
C383        O387   1.372       .  S
C384        H388   1.084       .  S
O385        H390   0.992       .  S
O387        H391   0.992       .  S
C393        C394   1.401       .  A
C393        C398   1.400       .  A
C393        H403   1.084       .  S
C394        C399   1.476       .  S
C394        C395   1.404       .  A
C395        C396   1.399       .  A
C395        O400   1.372       .  S
C396        C397   1.409       .  A
C396        H401   1.083       .  S
C397        C398   1.412       .  A
C398        O402   1.370       .  S
C399        C404   1.407       .  A
C399        C408   1.401       .  A
O400        H416   0.992       .  S
O402        H413   0.992       .  S
C404        C405   1.401       .  A
C404        O409   1.371       .  S
C405        C406   1.405       .  A
C405        H410   1.084       .  S
C406        C407   1.412       .  A
C407        C408   1.397       .  A
C407        O411   1.372       .  S
C408        H412   1.084       .  S
O409        H414   0.991       .  S
O411        H415   0.992       .  S
C417        C418   1.405       .  A
C417        C422   1.399       .  A
C417        H427   1.084       .  S
C418        C423   1.476       .  S
C418        C419   1.403       .  A
C419        C420   1.398       .  A
C419        O424   1.372       .  S
C420        C421   1.408       .  A
C420        H425   1.084       .  S
C421        C422   1.409       .  A
C422        O426   1.372       .  S
C423        C428   1.409       .  A
C423        C432   1.399       .  A
O424        H440   0.992       .  S
O426        H437   0.991       .  S
C428        C429   1.399       .  A
C428        O433   1.372       .  S
C429        C430   1.405       .  A
C429        H434   1.084       .  S
C430        C431   1.414       .  A
C431        C432   1.399       .  A
C431        O435   1.372       .  S
C432        H436   1.084       .  S
O433        H438   0.992       .  S
O435        H439   0.992       .  S
C441        C442   1.397       .  A
C441        C446   1.395       .  A
C441        H451   1.084       .  S
C442        C447   1.467       .  S
C442        C443   1.407       .  A
C443        C444   1.395       .  A
C443        O448   1.372       .  S
C444        C445   1.402       .  A
C444        H449   1.084       .  S
C445        C446   1.413       .  A
C446        O450   1.372       .  S
C447        C452   1.410       .  A
C447        C456   1.395       .  A
O448        H464   0.992       .  S
O450        H461   0.992       .  S
C452        C453   1.404       .  A
C452        O457   1.371       .  S
C453        C454   1.399       .  A
C453        H458   1.083       .  S
C454        C455   1.409       .  A
C455        C456   1.389       .  A
C455        O459   1.372       .  S
C456        H460   1.084       .  S
O457        H462   0.992       .  S
O459        H463   0.991       .  S
C465        C466   1.399       .  A
C465        C470   1.394       .  A
C465        H475   1.084       .  S
C466        C471   1.469       .  S
C466        C467   1.407       .  A
C467        C468   1.398       .  A
C467        O472   1.372       .  S
C468        C469   1.403   1_556  A
C468        H473   1.084   1_556  S
C469        C470   1.410   1_554  A
C470        O474   1.373   1_556  S
C471        C476   1.402       .  A
C471        C480   1.401       .  A
O472        H488   0.991       .  S
O474        H485   0.993       .  S
C476        C477   1.395       .  A
C476        O481   1.372       .  S
C477        C478   1.408       .  A
C477        H482   1.084       .  S
C478        C479   1.411       .  A
C479        C480   1.398       .  A
C479        O483   1.372       .  S
C480        H484   1.084       .  S
O481        H486   0.992       .  S
O483        H487   0.992       .  S
C489        C490   1.408   1_455  A
C489        C494   1.400       .  A
C489        H499   1.083   1_455  S
C490        C495   1.479       .  S
C490        C491   1.405   1_655  A
C491        C492   1.395       .  A
C491        O496   1.371       .  S
C492        C493   1.405       .  A
C492        H497   1.083       .  S
C493        C494   1.404       .  A
C494        O498   1.371       .  S
C495        C500   1.404       .  A
C495        C504   1.407       .  A
O496        H512   0.992       .  S
O498        H509   0.992       .  S
C500        C501   1.396       .  A
C500        O505   1.373       .  S
C501        C502   1.404       .  A
C501        H506   1.084       .  S
C502        C503   1.405       .  A
C503        C504   1.401       .  A
C503        O507   1.371       .  S
C504        H508   1.084       .  S
O505        H510   0.992       .  S
O507        H511   0.991       .  S
C513        C514   1.403       .  A
C513        C518   1.397       .  A
C513        H523   1.083       .  S
C514        C519   1.487       .  S
C514        C515   1.411       .  A
C515        C516   1.400       .  A
C515        O520   1.372       .  S
C516        C517   1.406       .  A
C516        H521   1.083       .  S
C517        C518   1.412       .  A
C518        O522   1.371       .  S
C519        C524   1.412       .  A
C519        C528   1.403       .  A
O520        H536   0.991       .  S
O522        H533   0.991       .  S
C524        C525   1.399       .  A
C524        O529   1.372       .  S
C525        C526   1.404       .  A
C525        H530   1.084       .  S
C526        C527   1.413       .  A
C527        C528   1.398       .  A
C527        O531   1.372       .  S
C528        H532   1.083       .  S
O529        H534   0.992       .  S
O531        H535   0.992       .  S
C537        C538   1.403       .  A
C537        C542   1.395       .  A
C537        H547   1.082       .  S
C538        C543   1.483       .  S
C538        C539   1.412       .  A
C539        C540   1.397       .  A
C539        O544   1.372       .  S
C540        C541   1.402       .  A
C540        H545   1.084       .  S
C541        C542   1.410       .  A
C542        O546   1.372       .  S
C543        C548   1.408       .  A
C543        C552   1.406       .  A
O544        H560   0.992       .  S
O546        H557   0.992       .  S
C548        C549   1.398       .  A
C548        O553   1.373       .  S
C549        C550   1.407       .  A
C549        H554   1.084       .  S
C550        C551   1.408       .  A
C551        C552   1.396       .  A
C551        O555   1.371       .  S
C552        H556   1.083       .  S
O553        H558   0.992       .  S
O555        H559   0.992       .  S
C561        C562   1.402       .  A
C561        C566   1.396       .  A
C561        H571   1.084       .  S
C562        C567   1.472       .  S
C562        C563   1.405       .  A
C563        C564   1.395       .  A
C563        O568   1.373       .  S
C564        C565   1.405       .  A
C564        H569   1.083       .  S
C565        C566   1.409       .  A
C566        O570   1.371       .  S
C567        C572   1.404       .  A
C567        C576   1.404       .  A
O568        H584   0.992       .  S
O570        H581   0.992       .  S
C572        C573   1.391       .  A
C572        O577   1.372       .  S
C573        C574   1.407       .  A
C573        H578   1.084       .  S
C574        C575   1.410       .  A
C575        C576   1.398       .  A
C575        O579   1.371       .  S
C576        H580   1.084       .  S
O577        H582   0.991       .  S
O579        H583   0.992       .  S
C585        C586   1.399       .  A
C585        C590   1.397       .  A
C585        H595   1.084       .  S
C586        C591   1.470       .  S
C586        C587   1.403       .  A
C587        C588   1.398       .  A
C587        O592   1.372       .  S
C588        C589   1.406       .  A
C588        H593   1.083       .  S
C589        C590   1.414       .  A
C590        O594   1.372       .  S
C591        C596   1.403       .  A
C591        C600   1.400       .  A
O592        H608   0.992       .  S
O594        H605   0.991       .  S
C596        C597   1.394       .  A
C596        O601   1.372       .  S
C597        C598   1.407       .  A
C597        H602   1.083       .  S
C598        C599   1.413       .  A
C599        C600   1.399       .  A
C599        O603   1.372       .  S
C600        H604   1.084       .  S
O601        H606   0.992       .  S
O603        H607   0.992       .  S
C609        C610   1.400       .  A
C609        C614   1.402       .  A
C609        H619   1.084       .  S
C610        C615   1.489   1_565  S
C610        C611   1.413       .  A
C611        C612   1.409       .  A
C611        O616   1.371       .  S
C612        C613   1.403       .  A
C612        H617   1.083       .  S
C613        C614   1.413       .  A
C614        O618   1.372       .  S
C615        C620   1.411       .  A
C615        C624   1.400       .  A
O616        H632   0.992       .  S
O618        H629   0.992       .  S
C620        C621   1.407       .  A
C620        O625   1.371   1_545  S
C621        C622   1.406       .  A
C621        H626   1.083       .  S
C622        C623   1.418       .  A
C623        C624   1.402       .  A
C623        O627   1.372       .  S
C624        H628   1.084       .  S
O625        H630   0.992       .  S
O627        H631   0.991       .  S
C633        C634   1.398       .  A
C633        C638   1.395       .  A
C633        H643   1.084       .  S
C634        C639   1.469       .  S
C634        C635   1.405       .  A
C635        C636   1.399       .  A
C635        O640   1.372       .  S
C636        C637   1.406       .  A
C636        H641   1.083       .  S
C637        C638   1.414       .  A
C638        O642   1.372       .  S
C639        C644   1.405       .  A
C639        C648   1.401   1_554  A
O640        H656   0.992       .  S
O642        H653   0.991       .  S
C644        C645   1.397       .  A
C644        O649   1.372       .  S
C645        C646   1.402   1_554  A
C645        H650   1.084       .  S
C646        C647   1.409       .  A
C647        C648   1.396       .  A
C647        O651   1.373       .  S
C648        H652   1.084       .  S
O649        H654   0.992       .  S
O651        H655   0.992       .  S
C657        C658   1.405       .  A
C657        C662   1.400       .  A
C657        H667   1.084   1_556  S
C658        C663   1.486   1_556  S
C658        C659   1.409       .  A
C659        C660   1.402       .  A
C659        O664   1.372       .  S
C660        C661   1.404       .  A
C660        H665   1.084       .  S
C661        C662   1.410       .  A
C662        O666   1.372       .  S
C663        C668   1.411   1_554  A
C663        C672   1.404       .  A
O664        H680   0.992       .  S
O666        H677   0.993       .  S
C668        C669   1.403   1_556  A
C668        O673   1.371       .  S
C669        C670   1.404       .  A
C669        H674   1.084       .  S
C670        C671   1.410       .  A
C671        C672   1.398       .  A
C671        O675   1.372       .  S
C672        H676   1.084       .  S
O673        H678   0.992       .  S
O675        H679   0.992       .  S
C681        C682   1.399       .  A
C681        C686   1.400       .  A
C681        H691   1.084       .  S
C682        C687   1.477       .  S
C682        C683   1.406       .  A
C683        C684   1.401       .  A
C683        O688   1.372       .  S
C684        C685   1.407       .  A
C684        H689   1.084       .  S
C685        C686   1.415       .  A
C686        O690   1.371       .  S
C687        C692   1.405       .  A
C687        C696   1.400       .  A
O688        H704   0.992       .  S
O690        H701   0.992       .  S
C692        C693   1.397       .  A
C692        O697   1.372       .  S
C693        C694   1.407       .  A
C693        H698   1.084       .  S
C694        C695   1.416       .  A
C695        C696   1.403       .  A
C695        O699   1.371       .  S
C696        H700   1.084       .  S
O697        H702   0.992       .  S
O699        H703   0.992       .  S
C705        C706   1.397       .  A
C705        C710   1.391       .  A
C705        H715   1.084       .  S
C706        C711   1.468       .  S
C706        C707   1.407       .  A
C707        C708   1.397       .  A
C707        O712   1.372       .  S
C708        C709   1.404   1_556  A
C708        H713   1.084       .  S
C709        C710   1.414   1_554  A
C710        O714   1.372   1_556  S
C711        C716   1.402       .  A
C711        C720   1.403       .  A
O712        H728   0.992       .  S
O714        H725   0.991       .  S
C716        C717   1.392       .  A
C716        O721   1.372       .  S
C717        C718   1.405       .  A
C717        H722   1.082       .  S
C718        C719   1.408       .  A
C719        C720   1.398       .  A
C719        O723   1.372       .  S
C720        H724   1.084       .  S
O721        H726   0.991       .  S
O723        H727   0.992       .  S
C729        C730   1.404       .  A
C729        C734   1.398       .  A
C729        H739   1.084       .  S
C730        C735   1.468       .  S
C730        C731   1.402       .  A
C731        C732   1.394       .  A
C731        O736   1.372       .  S
C732        C733   1.404       .  A
C732        H737   1.083       .  S
C733        C734   1.405       .  A
C734        O738   1.371       .  S
C735        C740   1.405       .  A
C735        C744   1.400       .  A
O736        H752   0.992       .  S
O738        H749   0.992       .  S
C740        C741   1.395       .  A
C740        O745   1.372       .  S
C741        C742   1.405       .  A
C741        H746   1.084       .  S
C742        C743   1.410       .  A
C743        C744   1.395       .  A
C743        O747   1.372       .  S
C744        H748   1.084       .  S
O745        H750   0.992       .  S
O747        H751   0.992       .  S
