geometry optimzed in LAMMPS
_audit_creation_date              2020-12-01 
_audit_creation_method            'lammps2cif' 
_symmetry_space_group_name_H-M    'P1' 
_symmetry_Int_Tables_number       1 
_symmetry_cell_setting            triclinic 
loop_ 
_symmetry_equiv_pos_as_xyz 
  x,y,z 
_cell_length_a                    69.39262571 
_cell_length_b                    69.3335026250831 
_cell_length_c                    43.55383648870209 
_cell_angle_alpha                 89.88802834152159 
_cell_angle_beta                  90.26609405862501 
_cell_angle_gamma                 120.38920243405029 
loop_ 
_atom_site_label 
_atom_site_type_symbol 
_atom_site_fract_x 
_atom_site_fract_y 
_atom_site_fract_z 
_atom_site_charge 
O1          O  0.83576437  0.28359380  0.19204534    -0.81200
O2          O  0.83967036  0.23944249  0.31161380    -0.65900
O3          O  0.83475985  0.27939985  0.25613484    -1.12500
C4          C  0.91264530  0.32008234  0.26728949     1.05700
O5          O  0.85946547  0.26778460  0.34276637    -0.79100
O6          O  0.86858940  0.30857421  0.32309553    -0.66700
Ni7        Ni  0.81365224  0.26789676  0.22329592     1.34900
C8          C  0.86739520  0.32185426  0.30415057     0.84400
O9          O  0.80448322  0.24050333  0.28887956    -0.79600
O10         O  0.78941636  0.25114804  0.25160036    -0.89900
C11         C  0.84933866  0.24691795  0.33716462     0.84000
O12         O  0.81531195  0.24186442  0.21408278    -0.68100
O13         O  0.90700209  0.31459301  0.29528617    -0.87400
C14         C  0.82575458  0.23306710  0.22605627     0.84800
C15         C  0.78781620  0.24003752  0.27583103     1.06400
H16         H  0.87387880  0.26924980  0.27135334     0.38200
O17         O  0.86737055  0.27754514  0.27976746    -1.10000
O18         O  0.86868887  0.31997645  0.27521909    -0.66700
Ni19       Ni  0.86649404  0.29646744  0.24869606     1.26300
O20         O  0.83598058  0.23947524  0.25169458    -0.66900
O21         O  0.89858842  0.31275502  0.24494435    -0.79200
C22         C  0.85256436  0.30335037  0.19066405     0.84200
O23         O  0.86422976  0.31311209  0.21449605    -0.66400
Ni24       Ni  0.88226682  0.29091621  0.31724597     1.27400
Ni25       Ni  0.83607414  0.25867792  0.28378262     1.26100
H26         H  0.83062348  0.28840748  0.26820441     0.38800
O27         O  0.94087565  0.18138067  0.64535116    -0.81200
O28         O  0.89936118  0.18279951  0.52423025    -0.65900
O29         O  0.93876277  0.17893651  0.58141723    -1.12500
C30         C  0.97899027  0.25642766  0.56868622     1.05700
O31         O  0.92785502  0.20183263  0.49300842    -0.79100
O32         O  0.96882194  0.21167997  0.51444786    -0.66700
Ni33       Ni  0.92685514  0.15840897  0.61465287     1.34900
C34         C  0.98218331  0.21145981  0.53426005     0.84400
O35         O  0.89966131  0.14805637  0.54989531    -0.79600
O36         O  0.91155961  0.13368790  0.58656473    -0.89900
C37         C  0.90696333  0.19189209  0.49844994     0.84000
O38         O  0.89994489  0.15890010  0.62121936    -0.68100
O39         O  0.97430157  0.25056283  0.54049180    -0.87400
C40         C  0.89221212  0.17044307  0.60972279     0.84800
C41         C  0.89981384  0.13165781  0.56282673     1.06400
H42         H  0.92892190  0.21788621  0.56326006     0.38200
O43         O  0.93720425  0.21109346  0.55578601    -1.10000
O44         O  0.97973310  0.21303215  0.56302159    -0.66700
Ni45       Ni  0.95546954  0.21072030  0.58808832     1.26300
O46         O  0.89955874  0.18128578  0.58474595    -0.66900
O47         O  0.97119176  0.24265493  0.59117811    -0.79200
C48         C  0.96069490  0.19793950  0.64743500     0.84200
O49         O  0.97127150  0.20905030  0.62371307    -0.66400
Ni50       Ni  0.95091927  0.22529845  0.51835695     1.27400
Ni51       Ni  0.91823350  0.17976281  0.55313109     1.26100
H52         H  0.94792195  0.17468994  0.56994919     0.38800
O53         O  0.89170110  0.39034559  0.97641465    -0.81200
O54         O  0.93700570  0.43041149  0.85502832    -0.65900
O55         O  0.89232652  0.39247639  0.91209027    -1.12500
C56         C  0.92521149  0.34827918  0.90046445     1.05700
O57         O  0.92647655  0.40139204  0.82450543    -0.79100
O58         O  0.89304644  0.36209570  0.84598075    -0.66700
Ni59       Ni  0.88398538  0.40489400  0.94466864     1.34900
C60         C  0.87873673  0.34918850  0.86539355     0.84400
O61         O  0.90205824  0.43152946  0.87907443    -0.79600
O62         O  0.87582268  0.42075603  0.91561292    -0.89900
C63         C  0.93834722  0.42227779  0.82965232     0.84000
O64         O  0.91197998  0.43131759  0.95132559    -0.68100
O65         O  0.92426835  0.35337569  0.87245211    -0.87400
C66         C  0.93124238  0.43923627  0.93968529     0.84800
C67         C  0.88582625  0.43214120  0.89170767     1.06400
H68         H  0.94053347  0.40014121  0.89530635     0.38200
O69         O  0.92538064  0.39229933  0.88755708    -1.10000
O70         O  0.88280231  0.35096614  0.89415782    -0.66700
Ni71       Ni  0.90576527  0.37442689  0.91951732     1.26300
O72         O  0.93473807  0.43140105  0.91524760    -0.66900
O73         O  0.92010316  0.35673752  0.92304831    -0.79200
C74         C  0.88751751  0.37024126  0.97842929     0.84200
O75         O  0.88739480  0.35934156  0.95472577    -0.66400
Ni76       Ni  0.92475495  0.37778667  0.85032075     1.27400
Ni77       Ni  0.91430167  0.41226829  0.88374942     1.26100
H78         H  0.87877958  0.38372521  0.90036036     0.38800
O79         O  0.10145095  0.49698845  0.52260534    -0.81200
O80         O  0.05539597  0.49402894  0.64421495    -0.65900
O81         O  0.09965286  0.49944528  0.58725587    -1.12500
C82         C  0.06251671  0.42174615  0.60113758     1.05700
O83         O  0.06663923  0.47661317  0.67518365    -0.79100
O84         O  0.09743622  0.46708953  0.65482997    -0.66700
Ni85       Ni  0.10806613  0.51970084  0.55344602     1.34900
C86         C  0.11159403  0.46838799  0.63541261     0.84400
O87         O  0.09049778  0.52948160  0.61895250    -0.79600
O88         O  0.11552101  0.54453835  0.58091299    -0.89900
C89         C  0.05418705  0.48475233  0.66980609     0.84000
O90         O  0.07964825  0.51644136  0.54504674    -0.68100
O91         O  0.06383404  0.42792230  0.62911142    -0.87400
C92         C  0.06060241  0.50551390  0.55754339     0.84800
C93         C  0.10616538  0.54621962  0.60517499     1.06400
H94         H  0.05090666  0.45960688  0.60509107     0.38200
O95         O  0.06605313  0.46678817  0.61283641    -1.10000
O96         O  0.10764270  0.46652175  0.60663473    -0.66700
Ni97       Ni  0.08511206  0.46754707  0.58113138     1.26300
O98         O  0.05758339  0.49617705  0.58371176    -0.66900
O99         O  0.06928230  0.43540318  0.57842748    -0.79200
C100        C  0.10371519  0.47984617  0.52208334     0.84200
O101        O  0.10306609  0.46942087  0.54652824    -0.66400
Ni102      Ni  0.06583544  0.45305758  0.65062840     1.27400
Ni103      Ni  0.07788610  0.49797147  0.61549553     1.26100
H104        H  0.11321624  0.50421828  0.59888248     0.38800
O105        O  0.04693725  0.23019315  0.85996255    -0.81200
O106        O  0.08965322  0.27973779  0.97821065    -0.65900
O107        O  0.05148775  0.23287975  0.92398967    -1.12500
C108        C  0.00647513  0.26537802  0.93561348     1.05700
O109        O  0.06125156  0.26803723  0.01002475    -0.79100
O110        O  0.01997649  0.23529935  0.99208694    -0.66700
Ni111      Ni  0.06399495  0.22505134  0.89072474     1.34900
C112        C  0.00726162  0.22012273  0.97334610     0.84400
O113        O  0.09232572  0.24583877  0.95451383    -0.79600
O114        O  0.08228870  0.21922987  0.91871918    -0.89900
C115        C  0.08194119  0.28053162  0.00413343     0.84000
O116        O  0.08871106  0.25398148  0.88147487    -0.68100
O117        O  0.01300756  0.26685650  0.96353764    -0.87400
C118        C  0.09571763  0.27335552  0.89252730     0.84800
C119        C  0.09384643  0.23002286  0.94218179     1.06400
H120        H  0.05746135  0.28060734  0.93888451     0.38200
O121        O  0.05042828  0.26579494  0.94772149    -1.10000
O122        O  0.00978401  0.22257787  0.94431408    -0.66700
Ni123      Ni  0.03216761  0.24499468  0.91727983     1.26300
O124        O  0.08868772  0.27647509  0.91795604    -0.66900
O125        O  0.01374175  0.25843935  0.91366206    -0.79200
C126        C  0.02680232  0.22598281  0.85925152     0.84200
O127        O  0.01638400  0.22535394  0.88359771    -0.66400
Ni128      Ni  0.03732077  0.26680453  0.98533992     1.27400
Ni129      Ni  0.07153777  0.25619234  0.95072425     1.26100
H130        H  0.04356596  0.21953630  0.93633080     0.38800
O131        O  0.15263983  0.43777065  0.31307965    -0.81200
O132        O  0.15137122  0.39461500  0.19148897    -0.65900
O133        O  0.15591130  0.43792460  0.24903450    -1.12500
C134        C  0.07793569  0.40058502  0.23458996     1.05700
O135        O  0.13362466  0.40574193  0.16082544    -0.79100
O136        O  0.12125718  0.43475590  0.18052672    -0.66700
Ni137      Ni  0.17596448  0.44605793  0.28288701     1.34900
C138        C  0.12300390  0.44925842  0.19978925     0.84400
O139        O  0.18636075  0.42960058  0.21767648    -0.79600
O140        O  0.20102751  0.45516954  0.25530205    -0.89900
C141        C  0.14262501  0.39396674  0.16566358     0.84000
O142        O  0.17430615  0.41801222  0.28988713    -0.68100
O143        O  0.08367924  0.40007959  0.20684071    -0.87400
C144        C  0.16361253  0.39883439  0.27742350     0.84800
C145        C  0.20292684  0.44600974  0.23091255     1.06400
H146        H  0.11645935  0.38937806  0.23111155     0.38200
O147        O  0.12345381  0.40443286  0.22311046    -1.10000
O148        O  0.12306427  0.44624989  0.22876126    -0.66700
Ni149      Ni  0.12406747  0.42364246  0.25462784     1.26300
O150        O  0.15322885  0.39561677  0.25196666    -0.66900
O151        O  0.09188339  0.40813758  0.25706258    -0.79200
C152        C  0.13630345  0.44133314  0.31399813     0.84200
O153        O  0.12617867  0.44155409  0.28957606    -0.66400
Ni154      Ni  0.10933597  0.40340459  0.18528424     1.27400
Ni155      Ni  0.15475008  0.41644898  0.22077525     1.26100
H156        H  0.16074826  0.45155669  0.23758962     0.38800
O157        O  0.12747099  0.73846454  0.65841637    -0.81200
O158        O  0.12334538  0.69306262  0.78593882    -0.65900
O159        O  0.11841099  0.72733839  0.72056960    -1.12500
C160        C  0.19807182  0.76921812  0.72683585     1.05700
O161        O  0.14987197  0.72361129  0.80944370    -0.79100
O162        O  0.16897021  0.76531981  0.78749411    -0.66700
Ni163      Ni  0.10485375  0.71408497  0.68245216     1.34900
C164        C  0.15699061  0.77253477  0.77591806     0.84400
O165        O  0.08802660  0.69047792  0.75372016    -0.79600
O166        O  0.08046491  0.68910109  0.70310158    -0.89900
C167        C  0.13382848  0.70338210  0.81028771     0.84000
O168        O  0.12043322  0.69829311  0.67699396    -0.68100
O169        O  0.19683880  0.75793912  0.75079817    -0.87400
C170        C  0.12227660  0.68530385  0.69574761     0.84800
C171        C  0.07443986  0.68283148  0.73079820     1.06400
H172        H  0.15720538  0.71986294  0.73330804     0.38200
O173        O  0.15194386  0.72793914  0.74537351    -1.10000
O174        O  0.14692261  0.76562304  0.75031993    -0.66700
Ni175      Ni  0.14949210  0.74808254  0.71807347     1.26300
O176        O  0.12048146  0.68666857  0.72470629    -0.66900
O177        O  0.18099759  0.76828867  0.71434158    -0.79200
C178        C  0.13575284  0.75902698  0.66491881     0.84200
O179        O  0.14477387  0.76658403  0.69071383    -0.66400
Ni180      Ni  0.17239685  0.74024906  0.77878598     1.27400
Ni181      Ni  0.12020772  0.70891006  0.75147191     1.26100
H182        H  0.11075084  0.73455984  0.72882464     0.38800
O183        O  0.05846915  0.80709769  0.50760324    -0.81200
O184        O  0.01849369  0.80293955  0.37718884    -0.65900
O185        O  0.05026852  0.79780209  0.44518794    -1.12500
C186        C  0.09137707  0.87749569  0.44004170     1.05700
O187        O  0.04996177  0.82942740  0.35578780    -0.79100
O188        O  0.09076214  0.85004835  0.38125897    -0.66700
Ni189      Ni  0.03593252  0.78357357  0.48225166     1.34900
C190        C  0.09767163  0.83782876  0.39290127     0.84400
O191        O  0.01503902  0.76735335  0.40952672    -0.79600
O192        O  0.01273821  0.75849483  0.45981797    -0.89900
C193        C  0.02976023  0.81353219  0.35358689     0.84000
O194        O  0.01839667  0.79739910  0.48602600    -0.68100
O195        O  0.08030783  0.87633819  0.41587993    -0.87400
C196        C  0.00674016  0.80052731  0.46636584     0.84800
C197        C  0.00744183  0.75310576  0.43163000     1.06400
H198        H  0.04283627  0.83634506  0.43103223     0.38200
O199        O  0.05139204  0.83129833  0.41968185    -1.10000
O200        O  0.08947518  0.82669534  0.41750051    -0.66700
Ni201      Ni  0.07070781  0.82894281  0.44841889     1.26300
O202        O  0.00940069  0.79961607  0.43750599    -0.66900
O203        O  0.09059352  0.86043973  0.45235825    -0.79200
C204        C  0.07936399  0.81575939  0.50354614     0.84200
O205        O  0.08810636  0.82442830  0.47802289    -0.66400
Ni206      Ni  0.06457035  0.85204075  0.38699906     1.27400
Ni207      Ni  0.03286760  0.79959367  0.41288396     1.26100
H208        H  0.05791045  0.79038543  0.43756690     0.38800
O209        O  0.85705364  0.59813337  0.84040635    -0.81200
O210        O  0.85899485  0.55881995  0.71250776    -0.65900
O211        O  0.86502338  0.59803510  0.77786522    -1.12500
C212        C  0.78509708  0.55925039  0.77407347     1.05700
O213        O  0.83238539  0.56259619  0.68942626    -0.79100
O214        O  0.81420793  0.58566172  0.71234004    -0.66700
Ni215      Ni  0.88028997  0.59944167  0.81483319     1.34900
C216        C  0.82568891  0.60482223  0.72462338     0.84400
O217        O  0.89487859  0.59216549  0.74255793    -0.79600
O218        O  0.90496983  0.60157033  0.79203203    -0.89900
C219        C  0.84859271  0.55884728  0.68833023     0.84000
O220        O  0.86792224  0.56813865  0.82074394    -0.68100
O221        O  0.78612115  0.54999884  0.74920243    -0.87400
C222        C  0.86447904  0.55288831  0.80171880     0.84800
C223        C  0.90958509  0.59980313  0.76413759     1.06400
H224        H  0.82602855  0.55120591  0.76557456     0.38200
O225        O  0.83108019  0.56476643  0.75386655    -1.10000
O226        O  0.83537401  0.60767355  0.75060746    -0.66700
Ni227      Ni  0.83390744  0.58709154  0.78212125     1.26300
O228        O  0.86330294  0.55528234  0.77282362    -0.66900
O229        O  0.80236365  0.57493299  0.78728307    -0.79200
C230        C  0.84885691  0.61068498  0.83631846     0.84200
O231        O  0.83916832  0.60987381  0.81120119    -0.66400
Ni232      Ni  0.81029937  0.55682277  0.72076960     1.27400
Ni233      Ni  0.86273578  0.57786390  0.74670247     1.26100
H234        H  0.87218464  0.61291800  0.76924477     0.38800
O235        O  0.92620090  0.73989165  0.99208018    -0.81200
O236        O  0.97062512  0.77756784  0.11964410    -0.65900
O237        O  0.93527523  0.73931206  0.05422546    -1.12500
C238        C  0.89742073  0.78062021  0.05934750     1.05700
O239        O  0.94112190  0.77576926  0.14262401    -0.79100
O240        O  0.89929596  0.75442867  0.12023370    -0.66700
Ni241      Ni  0.94846959  0.73827439  0.01670456     1.34900
C242        C  0.89078576  0.73511460  0.10829266     0.84400
O243        O  0.97026336  0.74278432  0.08905567    -0.79600
O244        O  0.97105584  0.73556156  0.03872457    -0.89900
C245        C  0.96090580  0.77900000  0.14353840     0.84000
O246        O  0.96748368  0.76972937  0.01162983    -0.68100
O247        O  0.90871148  0.79022036  0.08350850    -0.87400
C248        C  0.98048928  0.78405289  0.03103363     0.84800
C249        C  0.97663896  0.73523965  0.06669710     1.06400
H250        H  0.94602374  0.78681142  0.06661847     0.38200
O251        O  0.93701354  0.77344334  0.07851010    -1.10000
O252        O  0.89736266  0.73161553  0.08271546    -0.66700
Ni253      Ni  0.91624639  0.75141184  0.05067457     1.26300
O254        O  0.97788167  0.78071453  0.05985559    -0.66900
O255        O  0.89782371  0.76444428  0.04622731    -0.79200
C256        C  0.90549087  0.72726597  0.99704345     0.84200
O257        O  0.89725077  0.72862289  0.02227112    -0.66400
Ni258      Ni  0.92542804  0.78249596  0.11160065     1.27400
Ni259      Ni  0.95409724  0.75879826  0.08555534     1.26100
H260        H  0.92702829  0.72430060  0.06236690     0.38800
O261        O  0.05906869  0.59835752  0.17295260    -0.81200
O262        O  0.09905569  0.64380225  0.04508855    -0.65900
O263        O  0.06038318  0.60840447  0.11025799    -1.12500
C264        C  0.10037734  0.56897882  0.10655035     1.05700
O265        O  0.09951635  0.61505036  0.02287410    -0.79100
O266        O  0.07606441  0.57335655  0.04398617    -0.66700
Ni267      Ni  0.05845872  0.62115439  0.14778302     1.34900
C268        C  0.05659618  0.56522985  0.05506752     0.84400
O269        O  0.06447986  0.64366878  0.07567321    -0.79600
O270        O  0.05659917  0.64433418  0.12579045    -0.89900
C271        C  0.10124736  0.63423633  0.02137179     0.84000
O272        O  0.08978997  0.63994185  0.15400981    -0.68100
O273        O  0.11052769  0.58033080  0.08274538    -0.87400
C274        C  0.10427391  0.65338031  0.13518715     0.84800
C275        C  0.05721769  0.65046674  0.09788214     1.06400
H276        H  0.10792329  0.61902450  0.09937399     0.38200
O277        O  0.09478266  0.61007717  0.08696117    -1.10000
O278        O  0.05288554  0.57100974  0.08112567    -0.66700
Ni279      Ni  0.07221461  0.58918785  0.11404290     1.26300
O280        O  0.10164285  0.65093149  0.10614268    -0.66900
O281        O  0.08450717  0.57014052  0.11907268    -0.79200
C282        C  0.04773326  0.57752524  0.16723855     0.84200
O283        O  0.04913485  0.57004834  0.14141041    -0.66400
Ni284      Ni  0.10440358  0.59836544  0.05450270     1.27400
Ni285      Ni  0.08022820  0.62729332  0.07939652     1.26100
H286        H  0.04551303  0.60026571  0.10157713     0.38800
O287        O  0.92728206  0.53221036  0.32790005    -0.81200
O288        O  0.88791885  0.53756901  0.45514873    -0.65900
O289        O  0.92694725  0.54204070  0.39018153    -1.12500
C290        C  0.88790777  0.46244034  0.39672254     1.05700
O291        O  0.89190126  0.51127020  0.47885180    -0.79100
O292        O  0.91390641  0.49164457  0.45707030    -0.66700
Ni293      Ni  0.92791594  0.55583825  0.35218197     1.34900
C294        C  0.93311461  0.50299945  0.44508559     0.84400
O295        O  0.92120260  0.57295580  0.42338704    -0.79600
O296        O  0.92972802  0.58102451  0.37334223    -0.89900
C297        C  0.88765224  0.52715073  0.47953547     0.84000
O298        O  0.89644152  0.54235914  0.34619571    -0.68100
O299        O  0.87809684  0.46378517  0.42072483    -0.87400
C300        C  0.88120035  0.53934043  0.36489519     0.84800
C301        C  0.92891716  0.58690528  0.40092051     1.06400
H302        H  0.88023787  0.50345885  0.40292663     0.38200
O303        O  0.89372230  0.50876136  0.41494756    -1.10000
O304        O  0.93632452  0.51311526  0.41952872    -0.66700
Ni305      Ni  0.91602398  0.51092045  0.38748263     1.26300
O306        O  0.88406317  0.54005868  0.39395949    -0.66900
O307        O  0.90404131  0.47942706  0.38393667    -0.79200
C308        C  0.93913905  0.52333062  0.33310748     0.84200
O309        O  0.93880371  0.51519547  0.35925818    -0.66400
Ni310      Ni  0.88543700  0.48846857  0.44845503     1.27400
Ni311      Ni  0.90683214  0.54057472  0.42090013     1.26100
H312        H  0.94187822  0.54950930  0.39870848     0.38800
O313        O  0.71723674  0.56619376  0.19075515    -0.81200
O314        O  0.76234561  0.61250539  0.31110033    -0.65900
O315        O  0.72192173  0.56824698  0.25480380    -1.12500
C316        C  0.68360834  0.60820595  0.26674670     1.05700
O317        O  0.73350541  0.60231762  0.34116206    -0.79100
O318        O  0.69108302  0.57499686  0.32284572    -0.66700
Ni319      Ni  0.73326400  0.55934970  0.22119286     1.34900
C320        C  0.67827781  0.55975551  0.30426581     0.84400
O321        O  0.76094117  0.57631654  0.28704925    -0.79600
O322        O  0.75033118  0.55146644  0.24859365    -0.89900
C323        C  0.75437558  0.61393786  0.33650144     0.84000
O324        O  0.75924170  0.58747213  0.21224329    -0.68100
O325        O  0.69090942  0.61006809  0.29423804    -0.87400
C326        C  0.76816606  0.60665421  0.22466684     0.84800
C327        C  0.76138386  0.56036220  0.27320881     1.06400
H328        H  0.73281349  0.61746379  0.27005786     0.38200
O329        O  0.72437678  0.60271531  0.27897661    -1.10000
O330        O  0.68142399  0.56148011  0.27528248    -0.66700
Ni331      Ni  0.70481508  0.58296459  0.24832041     1.26300
O332        O  0.76215291  0.60992694  0.25080994    -0.66900
O333        O  0.68859247  0.59896236  0.24500343    -0.79200
C334        C  0.69740888  0.56288077  0.19012994     0.84200
O335        O  0.68780521  0.56404830  0.21440686    -0.66400
Ni336      Ni  0.71235132  0.60575157  0.31641000     1.27400
Ni337      Ni  0.74299329  0.59004531  0.28261923     1.26100
H338        H  0.71291089  0.55482593  0.26659990     0.38800
O339        O  0.81851749  0.77123608  0.64574575    -0.81200
O340        O  0.81824729  0.72872167  0.52406581    -0.65900
O341        O  0.82147294  0.77144595  0.58147831    -1.12500
C342        C  0.74360302  0.73299139  0.56595234     1.05700
O343        O  0.80029579  0.73939420  0.49308121    -0.79100
O344        O  0.78793508  0.76848281  0.51309076    -0.66700
Ni345      Ni  0.84181204  0.78029937  0.61511244     1.34900
C346        C  0.78885700  0.78235828  0.53284737     0.84400
O347        O  0.85272713  0.76446977  0.54960601    -0.79600
O348        O  0.86681219  0.79027867  0.58698340    -0.89900
C349        C  0.80934541  0.72770184  0.49826665     0.84000
O350        O  0.84138569  0.75282414  0.62212153    -0.68100
O351        O  0.74978915  0.73333231  0.53820118    -0.87400
C352        C  0.83079836  0.73359831  0.60979055     0.84800
C353        C  0.86896704  0.78139780  0.56244270     1.06400
H354        H  0.78287130  0.72244943  0.56277566     0.38200
O355        O  0.78960409  0.73759679  0.55518411    -1.10000
O356        O  0.78800615  0.77859023  0.56167104    -0.66700
Ni357      Ni  0.78954292  0.75620322  0.58704553     1.26300
O358        O  0.82023164  0.73013270  0.58443782    -0.66900
O359        O  0.75725794  0.73998382  0.58884894    -0.79200
C360        C  0.80162652  0.77393648  0.64679240     0.84200
O361        O  0.79107971  0.77359968  0.62246074    -0.66400
Ni362      Ni  0.77578699  0.73695122  0.51713927     1.27400
Ni363      Ni  0.82103401  0.75043512  0.55305405     1.26100
H364        H  0.82588344  0.78500074  0.57005483     0.38800
O365        O  0.76810354  0.82961983  0.85763233    -0.81200
O366        O  0.72073704  0.82468398  0.97909956    -0.65900
O367        O  0.76464038  0.83016663  0.92208159    -1.12500
C368        C  0.72628963  0.75172165  0.93183696     1.05700
O369        O  0.72990149  0.80496916  0.00904439    -0.79100
O370        O  0.75971565  0.79452097  0.98830945    -0.66700
Ni371      Ni  0.77402282  0.85159456  0.88961613     1.34900
C372        C  0.77446555  0.79687041  0.96921794     0.84400
O373        O  0.75650040  0.85986212  0.95640030    -0.79600
O374        O  0.78118461  0.87597193  0.91837090    -0.89900
C375        C  0.71922905  0.81512528  0.00444003     0.84000
O376        O  0.74585685  0.84900169  0.88080401    -0.68100
O377        O  0.72597053  0.75694212  0.95990300    -0.87400
C378        C  0.72687178  0.83922224  0.89371572     0.84800
C379        C  0.77198267  0.87705289  0.94324828     1.06400
H380        H  0.71521453  0.79085043  0.93732470     0.38200
O381        O  0.73012018  0.79722382  0.94572828    -1.10000
O382        O  0.77139764  0.79638672  0.94029110    -0.66700
Ni383      Ni  0.74961378  0.79833349  0.91435009     1.26300
O384        O  0.72336138  0.82905700  0.91932395    -0.66900
O385        O  0.73354863  0.76613072  0.90998525    -0.79200
C386        C  0.76984501  0.81212423  0.85629972     0.84200
O387        O  0.76816799  0.80075887  0.88020432    -0.66400
Ni388      Ni  0.72842386  0.78183113  0.98273987     1.27400
Ni389      Ni  0.74297075  0.82849621  0.95047967     1.26100
H390        H  0.77802118  0.83434979  0.93385643     0.38800
O391        O  0.55973989  0.72427153  0.31176704    -0.81200
O392        O  0.60616915  0.76867028  0.19230397    -0.65900
O393        O  0.56161880  0.72872160  0.24785890    -1.12500
C394        C  0.59906905  0.68852898  0.23358952     1.05700
O395        O  0.59413059  0.73991672  0.16121425    -0.79100
O396        O  0.56495401  0.69777980  0.17944990    -0.66700
Ni397      Ni  0.55270456  0.74006085  0.28121504     1.34900
C398        C  0.55037154  0.68504679  0.19872198     0.84400
O399        O  0.57106956  0.76850065  0.21697389    -0.79600
O400        O  0.54479379  0.75687089  0.25340538    -0.89900
C401        C  0.60673443  0.76066519  0.16647785     0.84000
O402        O  0.58072688  0.76623007  0.28995001    -0.68100
O403        O  0.59956480  0.69483073  0.20580036    -0.87400
C404        C  0.60009129  0.77484724  0.27831945     0.84800
C405        C  0.55465841  0.76859129  0.22969805     1.06400
H406        H  0.61029711  0.73819291  0.23111720     0.38200
O407        O  0.59528683  0.73018188  0.22287652    -1.10000
O408        O  0.55351277  0.68789005  0.22763830    -0.66700
Ni409      Ni  0.57585440  0.71119221  0.25388985     1.26300
O410        O  0.60372977  0.76823200  0.25282203    -0.66900
O411        O  0.59136780  0.69462605  0.25605903    -0.79200
C412        C  0.55642972  0.70442035  0.31264770     0.84200
O413        O  0.55748262  0.69461707  0.28843515    -0.66400
Ni414      Ni  0.59632012  0.71748715  0.18477833     1.27400
Ni415      Ni  0.58364451  0.74965134  0.22047756     1.26100
H416        H  0.54823922  0.71999063  0.23578511     0.38800
O417        O  0.50125165  0.61385576  0.52414169    -0.81200
O418        O  0.50727150  0.57261816  0.64494831    -0.65900
O419        O  0.50039782  0.61092427  0.58879766    -1.12500
C420        C  0.57821136  0.65400779  0.59847968     1.05700
O421        O  0.52741339  0.60125132  0.67577244    -0.79100
O422        O  0.53396389  0.64128296  0.65528308    -0.66700
Ni423      Ni  0.47921536  0.59823127  0.55603404     1.34900
C424        C  0.53320936  0.65486350  0.63642601     0.84400
O425        O  0.47126128  0.57193400  0.62204217    -0.79600
O426        O  0.45515731  0.58163296  0.58512279    -0.89900
C427        C  0.51711932  0.58032258  0.67033295     0.84000
O428        O  0.48144858  0.57228856  0.54800961    -0.68100
O429        O  0.57278872  0.64914888  0.62668859    -0.87400
C430        C  0.49269160  0.56435543  0.56001708     0.84800
C431        C  0.45412549  0.57096152  0.60967155     1.06400
H432        H  0.54083067  0.60274622  0.60404464     0.38200
O433        O  0.53391309  0.61067447  0.61239220    -1.10000
O434        O  0.53401720  0.65262219  0.60739587    -0.66700
Ni435      Ni  0.53197843  0.62881160  0.58106550     1.26300
O436        O  0.50338821  0.57174631  0.58516661    -0.66900
O437        O  0.56399612  0.64578452  0.57641719    -0.79200
C438        C  0.51771968  0.63387173  0.52263301     0.84200
O439        O  0.52857917  0.64436682  0.54662861    -0.66400
Ni440      Ni  0.54899170  0.62488121  0.64938689     1.27400
Ni441      Ni  0.50275621  0.59097735  0.61674005     1.26100
H442        H  0.49589980  0.61974321  0.60063924     0.38800
O443        O  0.60479894  0.51245090  0.98048236    -0.81200
O444        O  0.56140215  0.51330864  0.86021158    -0.65900
O445        O  0.60051208  0.50829319  0.91685804    -1.12500
C446        C  0.64373275  0.58586183  0.89922849     1.05700
O447        O  0.58967655  0.52908547  0.82812921    -0.79100
O448        O  0.63138646  0.53997018  0.84709877    -0.66700
Ni449      Ni  0.58864885  0.48881893  0.95114615     1.34900
C450        C  0.64410204  0.53821324  0.86655520     0.84400
O451        O  0.56002710  0.47819489  0.88742754    -0.79600
O452        O  0.57142810  0.46352721  0.92429417    -0.89900
C453        C  0.56899829  0.52094785  0.83378981     0.84000
O454        O  0.56310490  0.49159128  0.95872337    -0.68100
O455        O  0.63720543  0.57940336  0.87162142    -0.87400
C456        C  0.55560218  0.50318433  0.94670370     0.84800
C457        C  0.55972302  0.46161795  0.90052061     1.06400
H458        H  0.59338041  0.54860103  0.89764817     0.38200
O459        O  0.60065845  0.54083901  0.88995634    -1.10000
O460        O  0.64189311  0.53957411  0.89544904    -0.66700
Ni461      Ni  0.61938477  0.54019282  0.92143101     1.26300
O462        O  0.56242557  0.51299917  0.92089276    -0.66900
O463        O  0.63731619  0.57245572  0.92232510    -0.79200
C464        C  0.62520695  0.52797755  0.98111186     0.84200
O465        O  0.63542339  0.53813709  0.95660058    -0.66400
Ni466      Ni  0.61337691  0.55349254  0.85137370     1.27400
Ni467      Ni  0.58001644  0.50970939  0.88907855     1.26100
H468        H  0.60860223  0.50282675  0.90525122     0.38800
O469        O  0.46824172  0.40248563  0.33126729    -0.81200
O470        O  0.46290525  0.36030318  0.45964779    -0.65900
O471        O  0.45827859  0.39385310  0.39338751    -1.12500
C472        C  0.53794862  0.43677134  0.39875063     1.05700
O473        O  0.49095998  0.39023282  0.48246189    -0.79100
O474        O  0.50809781  0.43199631  0.46045992    -0.66700
Ni475      Ni  0.44428219  0.38008424  0.35567464     1.34900
C476        C  0.49704423  0.43989564  0.44774763     0.84400
O477        O  0.42742944  0.35767408  0.42769057    -0.79600
O478        O  0.41904161  0.35717207  0.37745519    -0.89900
C479        C  0.47423422  0.37033620  0.48355399     0.84000
O480        O  0.45727521  0.36180116  0.35114561    -0.68100
O481        O  0.53709337  0.42643586  0.42353100    -0.87400
C482        C  0.46029561  0.35004913  0.37070747     0.84800
C483        C  0.41332137  0.35092302  0.40523685     1.06400
H484        H  0.49690818  0.38631495  0.40680615     0.38200
O485        O  0.49185296  0.39474578  0.41846671    -1.10000
O486        O  0.48768553  0.43326770  0.42150863    -0.66700
Ni487      Ni  0.48934179  0.41437777  0.39003572     1.26300
O488        O  0.45988019  0.35290012  0.39953127    -0.66900
O489        O  0.52060950  0.43429708  0.38520412    -0.79200
C490        C  0.47551227  0.42309378  0.33562947     0.84200
O491        O  0.48442812  0.43197315  0.36104075    -0.66400
Ni492      Ni  0.51280418  0.40773896  0.45141505     1.27400
Ni493      Ni  0.45990277  0.37585875  0.42498597     1.26100
H494        H  0.45089270  0.40143502  0.40134974     0.38800
O495        O  0.39496651  0.47217682  0.18041928    -0.81200
O496        O  0.35221881  0.46617756  0.05202204    -0.65900
O497        O  0.38596016  0.46226801  0.11868865    -1.12500
C498        C  0.42613421  0.54213379  0.11290866     1.05700
O499        O  0.38265505  0.49345045  0.02956705    -0.79100
O500        O  0.42385340  0.51401981  0.05302273    -0.66700
Ni501      Ni  0.37213834  0.44831241  0.15621883     1.34900
C502        C  0.43161039  0.50255115  0.06466669     0.84400
O503        O  0.35015924  0.43109136  0.08417032    -0.79600
O504        O  0.34868760  0.42301574  0.13462096    -0.89900
C505        C  0.36264298  0.47712198  0.02814463     0.84000
O506        O  0.35447996  0.46204186  0.16066781    -0.68100
O507        O  0.41457085  0.54051047  0.08907387    -0.87400
C508        C  0.34228055  0.46432349  0.14100696     0.84800
C509        C  0.34280241  0.41716610  0.10670165     1.06400
H510        H  0.37731376  0.50009245  0.10543515     0.38200
O511        O  0.38592156  0.49532009  0.09365988    -1.10000
O512        O  0.42468363  0.49209610  0.09004676    -0.66700
Ni513      Ni  0.40606391  0.49359241  0.12181858     1.26300
O514        O  0.34461568  0.46296973  0.11223770    -0.66900
O515        O  0.42548238  0.52530270  0.12583983    -0.79200
C516        C  0.41564366  0.47990550  0.17588424     0.84200
O517        O  0.42431847  0.48929348  0.15062874    -0.66400
Ni518      Ni  0.39797006  0.51603793  0.06069629     1.27400
Ni519      Ni  0.36778156  0.46345207  0.08696483     1.26100
H520        H  0.39372791  0.45502564  0.11089187     0.38800
O521        O  0.19510850  0.26871749  0.51154637    -0.81200
O522        O  0.19657438  0.22780679  0.38370280    -0.65900
O523        O  0.20321968  0.26762981  0.44884103    -1.12500
C524        C  0.12336806  0.22951252  0.44597544     1.05700
O525        O  0.16894184  0.23052557  0.36178236    -0.79100
O526        O  0.15067658  0.25349117  0.38418866    -0.66700
Ni527      Ni  0.21803587  0.26886749  0.48614904     1.34900
C528        C  0.16300423  0.27311280  0.39470991     0.84400
O529        O  0.23288506  0.26137783  0.41398163    -0.79600
O530        O  0.24256035  0.27011848  0.46379000    -0.89900
C531        C  0.18503439  0.22667777  0.36009620     0.84000
O532        O  0.20471543  0.23741943  0.49230201    -0.68100
O533        O  0.12387705  0.21862891  0.42263776    -0.87400
C534        C  0.20165100  0.22223925  0.47334066     0.84800
C535        C  0.24741226  0.26865175  0.43588455     1.06400
H536        H  0.16422712  0.22099340  0.43812587     0.38200
O537        O  0.16905946  0.23418377  0.42566130    -1.10000
O538        O  0.17390174  0.27692518  0.41988351    -0.66700
Ni539      Ni  0.17225178  0.25716296  0.45275839     1.26300
O540        O  0.20121729  0.22480635  0.44437469    -0.66900
O541        O  0.14091158  0.24584121  0.45758231    -0.79200
C542        C  0.18654727  0.28092770  0.50676858     0.84200
O543        O  0.17776311  0.28043939  0.48096515    -0.66400
Ni544      Ni  0.14748056  0.22507620  0.39355623     1.27400
Ni545      Ni  0.20067160  0.24716967  0.41795887     1.26100
H546        H  0.21061533  0.28248993  0.44013138     0.38800
O547        O  0.25914697  0.40686450  0.66545765    -0.81200
O548        O  0.30275119  0.44496221  0.79423555    -0.65900
O549        O  0.26837080  0.40673137  0.72798931    -1.12500
C550        C  0.22972873  0.44727755  0.73191569     1.05700
O551        O  0.27278545  0.44258820  0.81659915    -0.79100
O552        O  0.23097032  0.42091676  0.79331021    -0.66700
Ni553      Ni  0.28200820  0.40642532  0.69045259     1.34900
C554        C  0.22264573  0.40158949  0.78140374     0.84400
O555        O  0.30374952  0.41106251  0.76294603    -0.79600
O556        O  0.30523351  0.40471419  0.71248074    -0.89900
C557        C  0.29269308  0.44608746  0.81804149     0.84000
O558        O  0.30001965  0.43810905  0.68565322    -0.68100
O559        O  0.24070638  0.45690815  0.75631813    -0.87400
C560        C  0.31287853  0.45251212  0.70513111     0.84800
C561        C  0.31072112  0.40420305  0.74045888     1.06400
H562        H  0.27799196  0.45376243  0.74054132     0.38200
O563        O  0.26916359  0.44034456  0.75242056    -1.10000
O564        O  0.22978724  0.39813902  0.75625541    -0.66700
Ni565      Ni  0.24879514  0.41819391  0.72440689     1.26300
O566        O  0.31046668  0.44887907  0.73396582    -0.66900
O567        O  0.23000029  0.43077865  0.71961767    -0.79200
C568        C  0.23840857  0.39422773  0.67047657     0.84200
O569        O  0.23019693  0.39533904  0.69586002    -0.66400
Ni570      Ni  0.25714877  0.44916085  0.78513777     1.27400
Ni571      Ni  0.28684482  0.42635700  0.75954951     1.26100
H572        H  0.26037397  0.39165943  0.73596173     0.38800
O573        O  0.25811875  0.19826898  0.99855639    -0.81200
O574        O  0.21764811  0.20128911  0.12558835    -0.65900
O575        O  0.25722711  0.20722435  0.06094644    -1.12500
C576        C  0.22064844  0.12751328  0.06627799     1.05700
O577        O  0.22114463  0.17449721  0.14880006    -0.79100
O578        O  0.24495566  0.15677486  0.12707014    -0.66700
Ni579      Ni  0.25840786  0.22155746  0.02333790     1.34900
C580        C  0.26416585  0.16864072  0.11529506     0.84400
O581        O  0.25118563  0.23719612  0.09518959    -0.79600
O582        O  0.25978582  0.24634509  0.04529489    -0.89900
C583        C  0.21720778  0.19058124  0.14969532     0.84000
O584        O  0.22701933  0.20820341  0.01699467    -0.68100
O585        O  0.21021109  0.12813932  0.09002644    -0.87400
C586        C  0.21220917  0.20600804  0.03589728     0.84800
C587        C  0.25852142  0.25152066  0.07313980     1.06400
H588        H  0.21060885  0.16798633  0.07261665     0.38200
O589        O  0.22402227  0.17319816  0.08477654    -1.10000
O590        O  0.26719214  0.17883096  0.08984776    -0.66700
Ni591      Ni  0.24686251  0.17628143  0.05760238     1.26300
O592        O  0.21471274  0.20556763  0.06489464    -0.66900
O593        O  0.23595017  0.14502735  0.05340086    -0.79200
C594        C  0.27041580  0.18991766  0.00396654     0.84200
O595        O  0.26996423  0.18148523  0.02987183    -0.66400
Ni596      Ni  0.21608422  0.15241387  0.11787391     1.27400
Ni597      Ni  0.23692843  0.20496940  0.09165730     1.26100
H598        H  0.27210422  0.21479571  0.06965739     0.38800
O599        O  0.39315308  0.26805117  0.84563097    -0.81200
O600        O  0.43276146  0.31123798  0.71708789    -0.65900
O601        O  0.39414611  0.27746387  0.78302191    -1.12500
C602        C  0.43487652  0.23879546  0.78024283     1.05700
O603        O  0.42951272  0.28064596  0.69529789    -0.79100
O604        O  0.40938875  0.23941787  0.71951262    -0.66700
Ni605      Ni  0.39381752  0.29132961  0.82034617     1.34900
C606        C  0.38974015  0.23173578  0.72971468     0.84400
O607        O  0.39909127  0.31296726  0.74794137    -0.79600
O608        O  0.39338985  0.31532745  0.79837286    -0.89900
C609        C  0.43337765  0.30065601  0.69346392     0.84000
O610        O  0.42537842  0.30810842  0.82562317    -0.68100
O611        O  0.44529932  0.25062634  0.75685000    -0.87400
C612        C  0.43999375  0.32106619  0.80661493     0.84800
C613        C  0.39295295  0.32070119  0.77034525     1.06400
H614        H  0.44106601  0.28681326  0.77170903     0.38200
O615        O  0.42780686  0.27804596  0.75943431    -1.10000
O616        O  0.38569241  0.23915989  0.75415803    -0.66700
Ni617      Ni  0.40545125  0.25769857  0.78678105     1.26300
O618        O  0.43647625  0.31925224  0.77770395    -0.66900
O619        O  0.41784476  0.23854926  0.79162054    -0.79200
C620        C  0.38137732  0.24719522  0.84034617     0.84200
O621        O  0.38249834  0.23917209  0.81477440    -0.66400
Ni622      Ni  0.43706559  0.26615240  0.72728879     1.27400
Ni623      Ni  0.41401716  0.29576488  0.75174075     1.26100
H624        H  0.37912323  0.26956319  0.77481651     0.38800
O625        O  0.52037372  0.93055405  0.17596932    -0.81200
O626        O  0.52454026  0.89189932  0.04868277    -0.65900
O627        O  0.52976089  0.93103006  0.11374315    -1.12500
C628        C  0.44988367  0.89139288  0.10822785     1.05700
O629        O  0.49826470  0.89628666  0.02562654    -0.79100
O630        O  0.47782291  0.91732450  0.04818041    -0.66700
Ni631      Ni  0.54429478  0.93239141  0.15132749     1.34900
C632        C  0.48919636  0.93667554  0.05990129     0.84400
O633        O  0.56045361  0.92525099  0.07977863    -0.79600
O634        O  0.56949768  0.93491517  0.12945678    -0.89900
C635        C  0.51392720  0.89176822  0.02459672     0.84000
O636        O  0.53220769  0.90114293  0.15716598    -0.68100
O637        O  0.45114257  0.88140007  0.08433003    -0.87400
C638        C  0.52932286  0.88608782  0.13815389     0.84800
C639        C  0.57476764  0.93303170  0.10194646     1.06400
H640        H  0.49127809  0.88419562  0.10131501     0.38200
O641        O  0.49628858  0.89764623  0.08936587    -1.10000
O642        O  0.50004127  0.94015637  0.08503542    -0.66700
Ni643      Ni  0.49853368  0.91985443  0.11700832     1.26300
O644        O  0.52846557  0.88849247  0.10922826    -0.66900
O645        O  0.46695168  0.90757195  0.12105550    -0.79200
C646        C  0.51186704  0.94279584  0.17146940     0.84200
O647        O  0.50306444  0.94242661  0.14578055    -0.66400
Ni648      Ni  0.47559750  0.88917953  0.05624191     1.27400
Ni649      Ni  0.52806549  0.91093806  0.08284617     1.26100
H650        H  0.53696776  0.94592901  0.10517144     0.38800
O651        O  0.59377952  0.06963396  0.32629614    -0.81200
O652        O  0.63707517  0.11194165  0.45426579    -0.65900
O653        O  0.60334922  0.07199028  0.38920452    -1.12500
C654        C  0.56332297  0.11127981  0.39038471     1.05700
O655        O  0.60655981  0.10857227  0.47607999    -0.79100
O656        O  0.56487919  0.08590645  0.45263608    -0.66700
Ni657      Ni  0.61730905  0.07129807  0.35215380     1.34900
C658        C  0.55707582  0.06645702  0.44131888     0.84400
O659        O  0.63904072  0.07803321  0.42485322    -0.79600
O660        O  0.64138854  0.07162536  0.37469464    -0.89900
C661        C  0.62678449  0.11308651  0.47777977     0.84000
O662        O  0.63400689  0.10288850  0.34615780    -0.68100
O663        O  0.57417217  0.12130998  0.41466180    -0.87400
C664        C  0.64684864  0.11782711  0.36509691     0.84800
C665        C  0.64682887  0.07169326  0.40280728     1.06400
H666        H  0.61191445  0.11899234  0.39982163     0.38200
O667        O  0.60330502  0.10568189  0.41199486    -1.10000
O668        O  0.56449276  0.06299996  0.41649287    -0.66700
Ni669      Ni  0.58335933  0.08290198  0.38450532     1.26300
O670        O  0.64474154  0.11474108  0.39404428    -0.66900
O671        O  0.56407948  0.09490795  0.37850191    -0.79200
C672        C  0.57304507  0.05755398  0.33193362     0.84200
O673        O  0.56508044  0.05946468  0.35699189    -0.66400
Ni674      Ni  0.59076426  0.11436439  0.44411272     1.27400
Ni675      Ni  0.62149043  0.09246904  0.42022770     1.26100
H676        H  0.59560600  0.05707817  0.39774087     0.38800
O677        O  0.79387692  0.06888259  0.99671159    -0.81200
O678        O  0.78982027  0.02653374  0.12551743    -0.65900
O679        O  0.78456488  0.05944292  0.05899295    -1.12500
C680        C  0.86434071  0.10144497  0.06572782     1.05700
O681        O  0.81577531  0.05779085  0.14822976    -0.79100
O682        O  0.83601430  0.09906347  0.12484546    -0.66700
Ni683      Ni  0.77060985  0.04551560  0.02138669     1.34900
C684        C  0.82403419  0.10621038  0.11310977     0.84400
O685        O  0.75420348  0.02306453  0.09331854    -0.79600
O686        O  0.74569094  0.02154846  0.04299166    -0.89900
C687        C  0.80005427  0.03747190  0.14957689     0.84000
O688        O  0.78474070  0.02817438  0.01658928    -0.68100
O689        O  0.86303780  0.09007929  0.08959778    -0.87400
C690        C  0.78716040  0.01592942  0.03607299     0.84800
C691        C  0.74019002  0.01530545  0.07086326     1.06400
H692        H  0.82335160  0.05229769  0.07266969     0.38200
O693        O  0.81812545  0.06057442  0.08434948    -1.10000
O694        O  0.81334352  0.09857146  0.08796886    -0.66700
Ni695      Ni  0.81571172  0.08027826  0.05632090     1.26300
O696        O  0.78651126  0.01860999  0.06495974    -0.66900
O697        O  0.84729455  0.10046087  0.05292335    -0.79200
C698        C  0.80238561  0.08973177  0.00158078     0.84200
O699        O  0.81101250  0.09809139  0.02739064    -0.66400
Ni700      Ni  0.83855042  0.07331894  0.11767022     1.27400
Ni701      Ni  0.78641217  0.04155233  0.09057418     1.26100
H702        H  0.77697676  0.06682022  0.06695871     0.38800
O703        O  0.73087455  0.13970571  0.83944125    -0.81200
O704        O  0.68585712  0.13368174  0.71216634    -0.65900
O705        O  0.72067867  0.12953032  0.77737344    -1.12500
C706        C  0.75948320  0.20902642  0.77121134     1.05700
O707        O  0.71697427  0.15919414  0.68897460    -0.79100
O708        O  0.75893299  0.18204235  0.71209640    -0.66700
Ni709      Ni  0.70805285  0.11555166  0.81532883     1.34900
C710        C  0.76692013  0.17073237  0.72366172     0.84400
O711        O  0.68377828  0.09841693  0.74408216    -0.79600
O712        O  0.68472283  0.09020218  0.79408558    -0.89900
C713        C  0.69641360  0.14397303  0.68794666     0.84000
O714        O  0.68926756  0.12785470  0.82109280    -0.68100
O715        O  0.74782208  0.20730949  0.74741939    -0.87400
C716        C  0.67639575  0.12983840  0.80225467     0.84800
C717        C  0.67727712  0.08457034  0.76667847     1.06400
H718        H  0.71186920  0.16738934  0.76462958     0.38200
O719        O  0.72023762  0.16241325  0.75268310    -1.10000
O720        O  0.75902737  0.15915109  0.74798860    -0.66700
Ni721      Ni  0.74071667  0.16080531  0.78005636     1.26300
O722        O  0.67903226  0.13010283  0.77323056    -0.66900
O723        O  0.75985474  0.19245838  0.78332942    -0.79200
C724        C  0.75159476  0.14822368  0.83426614     0.84200
O725        O  0.75954834  0.15697826  0.80843977    -0.66400
Ni726      Ni  0.73201907  0.18260272  0.71918789     1.27400
Ni727      Ni  0.70177345  0.13067817  0.74656978     1.26100
H728        H  0.72830673  0.12235618  0.76885552     0.38800
O729        O  0.73279945  0.93839960  0.51143199    -0.81200
O730        O  0.77004920  0.98065179  0.38404032    -0.65900
O731        O  0.73143851  0.94675831  0.44945170    -1.12500
C732        C  0.76939637  0.90535654  0.44520675     1.05700
O733        O  0.76758205  0.95059786  0.36159856    -0.79100
O734        O  0.74458662  0.90909582  0.38402982    -0.66700
Ni735      Ni  0.73045943  0.96014878  0.48673691     1.34900
C736        C  0.72521957  0.90127857  0.39538881     0.84400
O737        O  0.73689355  0.98274206  0.41483069    -0.79600
O738        O  0.72760254  0.98249864  0.46450243    -0.89900
C739        C  0.77049060  0.97027927  0.36017689     0.84000
O740        O  0.76165251  0.97952342  0.49212921    -0.68100
O741        O  0.77972610  0.91672786  0.42147256    -0.87400
C742        C  0.77682812  0.99132383  0.47307334     0.84800
C743        C  0.72897685  0.98911357  0.43673262     1.06400
H744        H  0.77796280  0.95515987  0.43759475     0.38200
O745        O  0.76457123  0.94660274  0.42547666    -1.10000
O746        O  0.72181768  0.90797433  0.42100610    -0.66700
Ni747      Ni  0.74213767  0.92653783  0.45318430     1.26300
O748        O  0.77413261  0.98815442  0.44418952    -0.66900
O749        O  0.75360346  0.90673378  0.45772376    -0.79200
C750        C  0.72008682  0.91750182  0.50780217     0.84200
O751        O  0.71951720  0.90861805  0.48215785    -0.66400
Ni752      Ni  0.77320625  0.93429613  0.39297647     1.27400
Ni753      Ni  0.75132870  0.96501015  0.41833698     1.26100
H754        H  0.71648750  0.93902233  0.44098762     0.38800
O755        O  0.59501421  0.86916929  0.66549964    -0.81200
O756        O  0.55165869  0.86910790  0.79229111    -0.65900
O757        O  0.59220329  0.87692457  0.72794976    -1.12500
C758        C  0.55777468  0.79734745  0.73195502     1.05700
O759        O  0.55544433  0.84243636  0.81515715    -0.79100
O760        O  0.58108080  0.82690641  0.79411637    -0.66700
Ni761      Ni  0.59187384  0.89052765  0.69028562     1.34900
C762        C  0.60034973  0.83971624  0.78302936     0.84400
O763        O  0.58461502  0.90566288  0.76240189    -0.79600
O764        O  0.59003450  0.91371963  0.71189844    -0.89900
C765        C  0.55077160  0.85799064  0.81614422     0.84000
O766        O  0.56026565  0.87373278  0.68423691    -0.68100
O767        O  0.54712723  0.79755272  0.75569291    -0.87400
C768        C  0.54554192  0.87197561  0.70300971     0.84800
C769        C  0.59004232  0.91940858  0.73983299     1.06400
H770        H  0.54624919  0.83655471  0.73874586     0.38200
O771        O  0.55956663  0.84208530  0.75120218    -1.10000
O772        O  0.60329258  0.84953747  0.75728352    -0.66700
Ni773      Ni  0.58309379  0.84626681  0.72442763     1.26300
O774        O  0.54876658  0.87330865  0.73195389    -0.66900
O775        O  0.57323169  0.81513777  0.71972163    -0.79200
C776        C  0.60816622  0.86197491  0.67184263     0.84200
O777        O  0.60704365  0.85281427  0.69741008    -0.66400
Ni778      Ni  0.55181936  0.82114143  0.78395270     1.27400
Ni779      Ni  0.57141506  0.87361641  0.75863107     1.26100
H780        H  0.60712367  0.88515868  0.73645169     0.38800
O781        O  0.17147350  0.95116483  0.85796384    -0.81200
O782        O  0.17382358  0.90422691  0.97521792    -0.65900
O783        O  0.16948924  0.94535526  0.92189958    -1.12500
C784        C  0.24746679  0.98544961  0.93472990     1.05700
O785        O  0.19272473  0.93180742  0.00788796    -0.79100
O786        O  0.20413277  0.97378741  0.99069843    -0.66700
Ni787      Ni  0.14874366  0.93448142  0.88846348     1.34900
C788        C  0.20299107  0.98745103  0.97244466     0.84400
O789        O  0.13919077  0.90538860  0.95210071    -0.79600
O790        O  0.12392487  0.91663652  0.91603363    -0.89900
C791        C  0.18237385  0.91105318  0.00147890     0.84000
O792        O  0.15072407  0.90882385  0.87804388    -0.68100
O793        O  0.24176067  0.97862775  0.96234412    -0.87400
C794        C  0.16111962  0.89985419  0.88961135     0.84800
C795        C  0.12237360  0.90486064  0.93958588     1.06400
H796        H  0.20851880  0.93505843  0.93642078     0.38200
O797        O  0.20189186  0.94305792  0.94544639    -1.10000
O798        O  0.20334260  0.98558872  0.94333187    -0.66700
Ni799      Ni  0.20134456  0.96273255  0.91553675     1.26300
O800        O  0.17126550  0.90586061  0.91532954    -0.66900
O801        O  0.23347160  0.97923214  0.91236572    -0.79200
C802        C  0.18892726  0.97058681  0.85778867     0.84200
O803        O  0.19943885  0.98006552  0.88240164    -0.66400
Ni804      Ni  0.21643491  0.95505700  0.98349565     1.27400
Ni805      Ni  0.17063642  0.92401434  0.94829864     1.26100
H806        H  0.16514295  0.95398569  0.93444718     0.38800
O807        O  0.27157550  0.84239812  0.31121364    -0.81200
O808        O  0.22746331  0.84839361  0.19365681    -0.65900
O809        O  0.26667022  0.84131040  0.24749378    -1.12500
C810        C  0.30987588  0.91932316  0.23599359     1.05700
O811        O  0.25566498  0.86615835  0.16163046    -0.79100
O812        O  0.29670462  0.87497132  0.17983309    -0.66700
Ni813      Ni  0.25477052  0.82025912  0.28026273     1.34900
C814        C  0.30966049  0.87304810  0.19859633     0.84400
O815        O  0.22620198  0.81244940  0.21688315    -0.79600
O816        O  0.23687041  0.79607190  0.25201673    -0.89900
C817        C  0.23486490  0.85667399  0.16745983     0.84000
O818        O  0.22952837  0.82314476  0.29015681    -0.68100
O819        O  0.30387267  0.91386386  0.20798866    -0.87400
C820        C  0.22187059  0.83494560  0.27927012     0.84800
C821        C  0.22512927  0.79518647  0.22879387     1.06400
H822        H  0.25910641  0.88221218  0.23284760     0.38200
O823        O  0.26651183  0.87487263  0.22414619    -1.10000
O824        O  0.30775392  0.87396726  0.22758391    -0.66700
Ni825      Ni  0.28513959  0.87304200  0.25459339     1.26300
O826        O  0.22869998  0.84558713  0.25402346    -0.66900
O827        O  0.30266345  0.90519453  0.25821907    -0.79200
C828        C  0.29168460  0.85861659  0.31207489     0.84200
O829        O  0.30152507  0.86984567  0.28811246    -0.66400
Ni830      Ni  0.27954195  0.88912260  0.18639546     1.27400
Ni831      Ni  0.24618497  0.84380687  0.22096164     1.26100
H832        H  0.27490774  0.83650724  0.23493300     0.38800
O833        O  0.38301943  0.89642287  0.52255632    -0.81200
O834        O  0.42490807  0.94512554  0.64223805    -0.65900
O835        O  0.38647609  0.89913552  0.58666535    -1.12500
C836        C  0.34345631  0.93371749  0.59779114     1.05700
O837        O  0.39598371  0.93289299  0.67302076    -0.79100
O838        O  0.35511109  0.90082584  0.65295404    -0.66700
Ni839      Ni  0.39888623  0.89047284  0.55424530     1.34900
C840        C  0.34189559  0.88646875  0.63367741     0.84400
O841        O  0.42646436  0.91041638  0.61883466    -0.79600
O842        O  0.41581776  0.88356992  0.58327956    -0.89900
C843        C  0.41673019  0.94568540  0.66793699     0.84000
O844        O  0.42458347  0.91890278  0.54545567    -0.68100
O845        O  0.34904917  0.93342472  0.62579097    -0.87400
C846        C  0.43210294  0.93840577  0.55637453     0.84800
C847        C  0.42717904  0.89400954  0.60704030     1.06400
H848        H  0.39395281  0.94748419  0.60235705     0.38200
O849        O  0.38637141  0.93244714  0.61047692    -1.10000
O850        O  0.34451064  0.88984210  0.60479680    -0.66700
Ni851      Ni  0.36818274  0.91241952  0.57916295     1.26300
O852        O  0.42493263  0.94192371  0.58148996    -0.66900
O853        O  0.35071974  0.92711795  0.57533771    -0.79200
C854        C  0.36307089  0.89271460  0.52101798     0.84200
O855        O  0.35271443  0.89350369  0.54468575    -0.66400
Ni856      Ni  0.37267274  0.93252002  0.64794661     1.27400
Ni857      Ni  0.40669460  0.92191205  0.61405088     1.26100
H858        H  0.37791198  0.88582943  0.59886935     0.38800
O859        O  0.48860371  0.10701606  0.97845372    -0.81200
O860        O  0.48085912  0.05981144  0.85673024    -0.65900
O861        O  0.48994972  0.10518312  0.91391085    -1.12500
C862        C  0.41250880  0.07286887  0.90169415     1.05700
O863        O  0.46455445  0.07268549  0.82609124    -0.79100
O864        O  0.45797004  0.10583645  0.84739372    -0.66700
Ni865      Ni  0.51057903  0.11267242  0.94703219     1.34900
C866        C  0.45956696  0.11985691  0.86741219     0.84400
O867        O  0.51784532  0.09346241  0.88149747    -0.79600
O868        O  0.53454762  0.11911084  0.91864967    -0.89900
C869        C  0.47210734  0.05960980  0.83104840     0.84000
O870        O  0.50632949  0.08371164  0.95471273    -0.68100
O871        O  0.41815122  0.07379158  0.87352251    -0.87400
C872        C  0.49419176  0.06450540  0.94289057     0.84800
C873        C  0.53523652  0.10900473  0.89450919     1.06400
H874        H  0.44779507  0.05756906  0.89638559     0.38200
O875        O  0.45578990  0.07275434  0.88881857    -1.10000
O876        O  0.45826508  0.11563959  0.89602535    -0.66700
Ni877      Ni  0.45839917  0.09245189  0.92081137     1.26300
O878        O  0.48385441  0.06162693  0.91743769    -0.66900
O879        O  0.42640411  0.07837089  0.92413491    -0.79200
C880        C  0.47293199  0.11152713  0.97940732     0.84200
O881        O  0.46223296  0.11121934  0.95541341    -0.66400
Ni882      Ni  0.44227620  0.07393396  0.85136416     1.27400
Ni883      Ni  0.48659474  0.08263156  0.88570396     1.26100
H884        H  0.49525463  0.11878591  0.90221602     0.38800
O885        O  0.22653225  0.05758854  0.64475645    -0.81200
O886        O  0.27196530  0.09824151  0.52374022    -0.65900
O887        O  0.22734427  0.06007150  0.58060680    -1.12500
C888        C  0.26036321  0.01597221  0.56806474     1.05700
O889        O  0.26080054  0.06915598  0.49308689    -0.79100
O890        O  0.22788720  0.02959385  0.51406691    -0.66700
Ni891      Ni  0.21877732  0.07218170  0.61326562     1.34900
C892        C  0.21360283  0.01677294  0.53354707     0.84400
O893        O  0.23711841  0.09942354  0.54833301    -0.79600
O894        O  0.21051107  0.08800479  0.58443549    -0.89900
C895        C  0.27299069  0.08999770  0.49826381     0.84000
O896        O  0.24667548  0.09875906  0.62021406    -0.68100
O897        O  0.25946284  0.02110591  0.54004627    -0.87400
C898        C  0.26607209  0.10673989  0.60895944     0.84800
C899        C  0.22069303  0.09973108  0.56088137     1.06400
H900        H  0.27549431  0.06776563  0.56340648     0.38200
O901        O  0.26032193  0.05998090  0.55572626    -1.10000
O902        O  0.21774833  0.01859655  0.56230190    -0.66700
Ni903      Ni  0.24086153  0.04203176  0.58761028     1.26300
O904        O  0.26975538  0.09900022  0.58448979    -0.66900
O905        O  0.25529636  0.02444445  0.59068079    -0.79200
C906        C  0.22300034  0.03770346  0.64673151     0.84200
O907        O  0.22279513  0.02686523  0.62292154    -0.66400
Ni908      Ni  0.25959392  0.04555762  0.51831358     1.27400
Ni909      Ni  0.24933330  0.08008112  0.55252010     1.26100
H910        H  0.21384998  0.05138072  0.56874917     0.38800
O911        O  0.43322013  0.16340441  0.18910861    -0.81200
O912        O  0.38786759  0.15885692  0.31088028    -0.65900
O913        O  0.43140857  0.16400743  0.25335424    -1.12500
C914        C  0.39226985  0.08563258  0.26495256     1.05700
O915        O  0.39933760  0.14103102  0.34053711    -0.79100
O916        O  0.42839427  0.12939075  0.31906699    -0.66700
Ni917      Ni  0.44067328  0.18548930  0.22107029     1.34900
C918        C  0.44236226  0.13088202  0.29915264     0.84400
O919        O  0.42335848  0.19419633  0.28681057    -0.79600
O920        O  0.44938881  0.20973153  0.25024726    -0.89900
C921        C  0.38701662  0.14945098  0.33616715     0.84000
O922        O  0.41281538  0.18412572  0.21354367    -0.68100
O923        O  0.39331461  0.09158603  0.29298757    -0.87400
C924        C  0.39357514  0.17299513  0.22556366     0.84800
C925        C  0.43991611  0.21107577  0.27460447     1.06400
H926        H  0.38230424  0.12469896  0.27049699     0.38200
O927        O  0.39745377  0.13139235  0.27811138    -1.10000
O928        O  0.43843441  0.13002093  0.27043031    -0.66700
Ni929      Ni  0.41608273  0.13207650  0.24588766     1.26300
O930        O  0.39010558  0.16213293  0.25053266    -0.66900
O931        O  0.39958574  0.09963524  0.24246615    -0.79200
C932        C  0.43577800  0.14645099  0.18721436     0.84200
O933        O  0.43373650  0.13441173  0.21059448    -0.66400
Ni934      Ni  0.39691322  0.11701694  0.31537597     1.27400
Ni935      Ni  0.41002869  0.16266549  0.28192872     1.26100
H936        H  0.44482551  0.16810313  0.26498703     0.38800
C937        C  0.35061684  0.14005706  0.46769166    -0.18100
C938        C  0.36696049  0.14792489  0.44483856    -0.20300
C939        C  0.36081712  0.14418551  0.41373274     0.20400
C940        C  0.33796504  0.13293594  0.40551625    -0.03200
C941        C  0.32147732  0.12444148  0.42859159    -0.06300
C942        C  0.32786538  0.12793918  0.45983306     0.20600
C943        C  0.29867230  0.11157406  0.42041746     0.18800
C944        C  0.29251094  0.10839892  0.38928846    -0.17800
C945        C  0.30882786  0.11735647  0.36640564    -0.20000
C946        C  0.33158394  0.12928138  0.37427975     0.20300
C947        C  0.34806516  0.13666094  0.35154517    -0.33000
C948        C  0.37071119  0.14662596  0.35972818     0.01000
C949        C  0.37704871  0.15061943  0.39075934    -0.24300
C950        C  0.31146300  0.11826007  0.48264170    -0.28900
C951        C  0.28893634  0.10423949  0.47457305     0.06700
C952        C  0.28256300  0.10125778  0.44349333    -0.27600
H953        H  0.35578856  0.14284254  0.49156112     0.11400
H954        H  0.38441739  0.15662165  0.45151654     0.12500
H955        H  0.27508184  0.09865631  0.38263275     0.11600
H956        H  0.30366595  0.11437069  0.34253750     0.10800
H957        H  0.34321666  0.13321350  0.32757382     0.16200
H958        H  0.39454756  0.15817771  0.39697177     0.12100
H959        H  0.31638156  0.12021287  0.50662548     0.15000
H960        H  0.26516490  0.09033232  0.43732741     0.14800
C961        C  0.44693769  0.16071040  0.07520294    -0.18100
C962        C  0.45180688  0.15573219  0.04611175    -0.20300
C963        C  0.45627907  0.13827393  0.04231004     0.20400
C964        C  0.45586860  0.12574824  0.06820171    -0.03200
C965        C  0.45063258  0.13057808  0.09754015    -0.06300
C966        C  0.44625406  0.14820384  0.10103097     0.20600
C967        C  0.44987951  0.11783755  0.12335086     0.18800
C968        C  0.45446165  0.10044787  0.11955575    -0.17800
C969        C  0.45998509  0.09589076  0.09062257    -0.20000
C970        C  0.46077833  0.10845828  0.06482638     0.20300
C971        C  0.46643619  0.10407264  0.03575796    -0.33000
C972        C  0.46659026  0.11626073  0.00975917     0.01000
C973        C  0.46127708  0.13320573  0.01316730    -0.24300
C974        C  0.44136923  0.15310636  0.13026927    -0.28900
C975        C  0.44061978  0.14057051  0.15632118     0.06700
C976        C  0.44474879  0.12280563  0.15249478    -0.27600
H977        H  0.44365340  0.17434469  0.07748854     0.11400
H978        H  0.45216401  0.16561427  0.02658594     0.12500
H979        H  0.45394384  0.09045825  0.13903949     0.11600
H980        H  0.46361764  0.08248744  0.08841817     0.10800
H981        H  0.47044477  0.09093652  0.03323714     0.16200
H982        H  0.46159757  0.14278979  0.99327585     0.12100
H983        H  0.43816909  0.16679459  0.13266601     0.15000
H984        H  0.44422277  0.11299517  0.17221806     0.14800
C985        C  0.29827923  0.95506029  0.53078307    -0.18100
C986        C  0.28619114  0.96614751  0.52711785    -0.20300
C987        C  0.28230926  0.97640314  0.55228637     0.20400
C988        C  0.29015147  0.97494312  0.58155516    -0.03200
C989        C  0.30230951  0.96370669  0.58525218    -0.06300
C990        C  0.30668982  0.95393390  0.55970875     0.20600
C991        C  0.31051099  0.96273015  0.61443939     0.18800
C992        C  0.30630430  0.97259054  0.63972251    -0.17800
C993        C  0.29436113  0.98373037  0.63605340    -0.20000
C994        C  0.28638755  0.98522615  0.60703416     0.20300
C995        C  0.27546125  0.99750482  0.60293838    -0.33000
C996        C  0.26847979  0.99997156  0.57357706     0.01000
C997        C  0.27143655  0.98874633  0.54852184    -0.24300
C998        C  0.31971670  0.94364032  0.56349875    -0.28900
C999        C  0.32828097  0.94292973  0.59263330     0.06700
C1000       C  0.32318368  0.95232280  0.61791716    -0.27600
H1001       H  0.30129852  0.94761916  0.51088634     0.11400
H1002       H  0.28020743  0.96703899  0.50443843     0.12500
H1003       H  0.31252954  0.97195030  0.66233903     0.11600
H1004       H  0.29165963  0.99148109  0.65586974     0.10800
H1005       H  0.27332735  0.00597252  0.62238448     0.16200
H1006       H  0.26597873  0.99024392  0.52573944     0.12100
H1007       H  0.32341672  0.93652822  0.54383385     0.15000
H1008       H  0.32955566  0.95209364  0.64059563     0.14800
C1009       C  0.43617386  0.96559684  0.77684370    -0.18100
C1010       C  0.44446394  0.98194282  0.79984654    -0.20300
C1011       C  0.45495098  0.00470543  0.79216053     0.20400
C1012       C  0.45806592  0.01112321  0.76097526    -0.03200
C1013       C  0.45029535  0.99464466  0.73776253    -0.06300
C1014       C  0.43862045  0.97176083  0.74576739     0.20600
C1015       C  0.45317911  0.00105536  0.70657245     0.18800
C1016       C  0.46415591  0.02383655  0.69889344    -0.17800
C1017       C  0.47127472  0.04012731  0.72188695    -0.20000
C1018       C  0.46794109  0.03392833  0.75295677     0.20300
C1019       C  0.47339304  0.04998829  0.77608460    -0.33000
C1020       C  0.46979955  0.04358384  0.80709972     0.01000
C1021       C  0.46136120  0.02107076  0.81504626    -0.24300
C1022       C  0.42862093  0.95553132  0.72261826    -0.28900
C1023       C  0.43080545  0.96191604  0.69162042     0.06700
C1024       C  0.44390171  0.98458452  0.68366819    -0.27600
H1025       H  0.42742409  0.94811859  0.78337810     0.11400
H1026       H  0.44197788  0.97674741  0.82367734     0.12500
H1027       H  0.46651685  0.02902788  0.67506300     0.11600
H1028       H  0.47899209  0.05755923  0.71534426     0.10800
H1029       H  0.47993379  0.06737520  0.76999696     0.16200
H1030       H  0.45834331  0.01611512  0.83898110     0.12100
H1031       H  0.41849976  0.93801241  0.72868933     0.15000
H1032       H  0.44532726  0.98948536  0.65974447     0.14800
C1033       C  0.36950110  0.89883804  0.40778605    -0.18100
C1034       C  0.35971316  0.89439821  0.37850015    -0.20300
C1035       C  0.33638293  0.88214602  0.37507100     0.20400
C1036       C  0.32285115  0.87432836  0.40157540    -0.03200
C1037       C  0.33271577  0.87902774  0.43114374    -0.06300
C1038       C  0.35614678  0.89125190  0.43421985     0.20600
C1039       C  0.31911347  0.87144827  0.45759584     0.18800
C1040       C  0.29581730  0.85899988  0.45420704    -0.17800
C1041       C  0.28607154  0.85413529  0.42496966    -0.20000
C1042       C  0.29943557  0.86177037  0.39858774     0.20300
C1043       C  0.28970907  0.85698033  0.36930174    -0.33000
C1044       C  0.30292573  0.86469500  0.34261885     0.01000
C1045       C  0.32633100  0.87745672  0.34571188    -0.24300
C1046       C  0.36580183  0.89562068  0.46365256    -0.28900
C1047       C  0.35237648  0.88825629  0.49020748     0.06700
C1048       C  0.32901396  0.87632190  0.48693813    -0.27600
H1049       H  0.38754843  0.90826204  0.40976237     0.11400
H1050       H  0.37040793  0.90049163  0.35851962     0.12500
H1051       H  0.28511606  0.85295917  0.47418713     0.11600
H1052       H  0.26803289  0.84442580  0.42299211     0.10800
H1053       H  0.27165901  0.84726173  0.36734739     0.16200
H1054       H  0.33667625  0.88336718  0.32537155     0.12100
H1055       H  0.38384702  0.90495307  0.46588684     0.15000
H1056       H  0.31856487  0.87044479  0.50719019     0.14800
C1057       C  0.34748099  0.00908559  0.30603578    -0.18100
C1058       C  0.33664868  0.98585179  0.30270165    -0.20300
C1059       C  0.33726868  0.97633128  0.27461382     0.20400
C1060       C  0.34915954  0.99047253  0.24973050    -0.03200
C1061       C  0.36009839  0.01398610  0.25308869    -0.06300
C1062       C  0.35914557  0.02322982  0.28134489     0.20600
C1063       C  0.37170141  0.02819846  0.22810757     0.18800
C1064       C  0.37242426  0.01862460  0.20008639    -0.17800
C1065       C  0.36156564  0.99533304  0.19673219    -0.20000
C1066       C  0.34974660  0.98113737  0.22132635     0.20300
C1067       C  0.33793269  0.95780030  0.21771668    -0.33000
C1068       C  0.32534675  0.94353122  0.24206035     0.01000
C1069       C  0.32561356  0.95296868  0.27070828    -0.24300
C1070       C  0.36974290  0.04646524  0.28450089    -0.28900
C1071       C  0.38144568  0.06099712  0.25985870     0.06700
C1072       C  0.38224855  0.05164613  0.23157833    -0.27600
H1073       H  0.34661580  0.01600517  0.32792619     0.11400
H1074       H  0.32758728  0.97532504  0.32201920     0.12500
H1075       H  0.38125585  0.02915060  0.18066176     0.11600
H1076       H  0.36219585  0.98840715  0.17473458     0.10800
H1077       H  0.33797376  0.95075057  0.19553752     0.16200
H1078       H  0.31585856  0.94221676  0.28948993     0.12100
H1079       H  0.36862212  0.05319364  0.30642715     0.15000
H1080       H  0.39109919  0.06252835  0.21244201     0.14800
C1081       C  0.20004980  0.97275394  0.71652701    -0.18100
C1082       C  0.19554077  0.96359366  0.74611336    -0.20300
C1083       C  0.19947205  0.97722320  0.77193452     0.20400
C1084       C  0.20864514  0.00041774  0.76802800    -0.03200
C1085       C  0.21299382  0.00964338  0.73807425    -0.06300
C1086       C  0.20848358  0.99571097  0.71215973     0.20600
C1087       C  0.22140622  0.03270200  0.73405971     0.18800
C1088       C  0.22604990  0.04645162  0.75997176    -0.17800
C1089       C  0.22194453  0.03735494  0.78962598    -0.20000
C1090       C  0.21295105  0.01429677  0.79396371     0.20300
C1091       C  0.20754714  0.00476952  0.82359615    -0.33000
C1092       C  0.19728596  0.98146366  0.82742394     0.01000
C1093       C  0.19377802  0.96793871  0.80147241    -0.24300
C1094       C  0.21212395  0.00487897  0.68237431    -0.28900
C1095       C  0.21995198  0.02779825  0.67808541     0.06700
C1096       C  0.22473400  0.04157153  0.70423306    -0.27600
H1097       H  0.19659031  0.96179618  0.69700490     0.11400
H1098       H  0.18865313  0.94575039  0.74876818     0.12500
H1099       H  0.23264964  0.06424789  0.75729220     0.11600
H1100       H  0.22543292  0.04831567  0.80915300     0.10800
H1101       H  0.21037278  0.01531070  0.84343533     0.16200
H1102       H  0.18624646  0.95000705  0.80425167     0.12100
H1103       H  0.20843075  0.99409907  0.66257120     0.15000
H1104       H  0.23100621  0.05930840  0.70143997     0.14800
C1105       C  0.32433880  0.02620646  0.97568540    -0.18100
C1106       C  0.34744993  0.03872252  0.97142887    -0.20300
C1107       C  0.35632700  0.04599260  0.94201218     0.20400
C1108       C  0.34168481  0.04088054  0.91669829    -0.03200
C1109       C  0.31831831  0.02812589  0.92097236    -0.06300
C1110       C  0.30970139  0.02067674  0.95058314     0.20600
C1111       C  0.30363599  0.02243301  0.89558536     0.18800
C1112       C  0.31253661  0.03000797  0.86621846    -0.17800
C1113       C  0.33569470  0.04270713  0.86198492    -0.20000
C1114       C  0.35037862  0.04801208  0.88702999     0.20300
C1115       C  0.37358729  0.05966941  0.88276224    -0.33000
C1116       C  0.38837149  0.06403482  0.90767348     0.01000
C1117       C  0.37955091  0.05760870  0.93737071    -0.24300
C1118       C  0.28661470  0.00741734  0.95461761    -0.28900
C1119       C  0.27172545  0.00106066  0.92945444     0.06700
C1120       C  0.28040512  0.00892502  0.89996151    -0.27600
H1121       H  0.31790952  0.02057280  0.99860248     0.11400
H1122       H  0.35839037  0.04246324  0.99111079     0.12500
H1123       H  0.30159912  0.02588844  0.84645643     0.11600
H1124       H  0.34213650  0.04808450  0.83901190     0.10800
H1125       H  0.38007755  0.06461287  0.85971179     0.16200
H1126       H  0.39067434  0.06077982  0.95668910     0.12100
H1127       H  0.28032393  0.00165440  0.97755975     0.15000
H1128       H  0.26919022  0.00422838  0.88041658     0.14800
C1129       C  0.20727099  0.86002596  0.03437922    -0.18100
C1130       C  0.21551743  0.85269673  0.05825836    -0.20300
C1131       C  0.21175591  0.85594265  0.08893649     0.20400
C1132       C  0.19834232  0.86534099  0.09567130    -0.03200
C1133       C  0.19055021  0.87329638  0.07161540    -0.06300
C1134       C  0.19551337  0.87107842  0.04086592     0.20600
C1135       C  0.17937136  0.88503427  0.07846549     0.18800
C1136       C  0.17421293  0.88681682  0.10906156    -0.17800
C1137       C  0.18140212  0.87837079  0.13288853    -0.20000
C1138       C  0.19420579  0.86839715  0.12648578     0.20300
C1139       C  0.20440697  0.86306402  0.15026768    -0.33000
C1140       C  0.21955152  0.85589848  0.14344314     0.01000
C1141       C  0.22249336  0.85151384  0.11291351    -0.24300
C1142       C  0.19025039  0.88151529  0.01740334    -0.28900
C1143       C  0.18132161  0.89512948  0.02457654     0.06700
C1144       C  0.17510315  0.89618188  0.05486342    -0.27600
H1145       H  0.21109578  0.85809124  0.01088944     0.11400
H1146       H  0.22555434  0.84525958  0.05274218     0.12500
H1147       H  0.16536985  0.89550031  0.11465144     0.11600
H1148       H  0.17794459  0.88068787  0.15640241     0.10800
H1149       H  0.20225724  0.86651445  0.17388961     0.16200
H1150       H  0.23406384  0.84579083  0.10778998     0.12100
H1151       H  0.19512492  0.88087891  0.99396577     0.15000
H1152       H  0.16807546  0.90663159  0.06020464     0.14800
C1153       C  0.49452299  0.85992269  0.61576802    -0.18100
C1154       C  0.47802438  0.86316946  0.60220200    -0.20300
C1155       C  0.46748689  0.87241793  0.61915272     0.20400
C1156       C  0.47326414  0.87787793  0.65037165    -0.03200
C1157       C  0.48971013  0.87432166  0.66418046    -0.06300
C1158       C  0.50068445  0.86569128  0.64662576     0.20600
C1159       C  0.49565549  0.88007577  0.69526999     0.18800
C1160       C  0.48489459  0.88898796  0.71239666    -0.17800
C1161       C  0.46880038  0.89271833  0.69866043    -0.20000
C1162       C  0.46306550  0.88746422  0.66759949     0.20300
C1163       C  0.44771261  0.89213737  0.65332340    -0.33000
C1164       C  0.44212561  0.88718469  0.62203286     0.01000
C1165       C  0.45174446  0.87685113  0.60526606    -0.24300
C1166       C  0.51815746  0.86376290  0.65989918    -0.28900
C1167       C  0.52469235  0.87016818  0.69062498     0.06700
C1168       C  0.51284967  0.87766494  0.70837353    -0.27600
H1169       H  0.50270711  0.85319471  0.60196383     0.11400
H1170       H  0.47380916  0.85883417  0.57824798     0.12500
H1171       H  0.48925351  0.89350564  0.73628066     0.11600
H1172       H  0.46104931  0.90000969  0.71224515     0.10800
H1173       H  0.44024617  0.89988924  0.66657128     0.16200
H1174       H  0.44763195  0.87305232  0.58116515     0.12100
H1175       H  0.52713855  0.85794356  0.64602476     0.15000
H1176       H  0.51785792  0.88287060  0.73193849     0.14800
C1177       C  0.68652831  0.90338956  0.64084035    -0.18100
C1178       C  0.70250255  0.91138521  0.61753514    -0.20300
C1179       C  0.69657114  0.90287981  0.58760682     0.20400
C1180       C  0.67453385  0.88567131  0.58122317    -0.03200
C1181       C  0.65831300  0.87791779  0.60458297    -0.06300
C1182       C  0.66433202  0.88697752  0.63445664     0.20600
C1183       C  0.63587497  0.86189455  0.59768485     0.18800
C1184       C  0.63014384  0.85288773  0.56798741    -0.17800
C1185       C  0.64632670  0.86027881  0.54495410    -0.20000
C1186       C  0.66843320  0.87700114  0.55115737     0.20300
C1187       C  0.68420074  0.88611300  0.52748826    -0.33000
C1188       C  0.70564879  0.90429512  0.53339443     0.01000
C1189       C  0.71195536  0.91210596  0.56362351    -0.24300
C1190       C  0.64783534  0.88022377  0.65701123    -0.28900
C1191       C  0.62537496  0.86528675  0.64969461     0.06700
C1192       C  0.61944830  0.85591359  0.62024784    -0.27600
H1193       H  0.69138286  0.91051697  0.66364106     0.11400
H1194       H  0.71937967  0.92457076  0.62276450     0.12500
H1195       H  0.61303724  0.84046385  0.56240137     0.11600
H1196       H  0.64138628  0.85343311  0.52202618     0.10800
H1197       H  0.67926573  0.88023510  0.50412513     0.16200
H1198       H  0.72855949  0.92609869  0.56821494     0.12100
H1199       H  0.65221580  0.88762202  0.67974105     0.15000
H1200       H  0.60202617  0.84445190  0.61477938     0.14800
C1201       C  0.58011503  0.11442828  0.80359839    -0.18100
C1202       C  0.59996355  0.11772917  0.79054048    -0.20300
C1203       C  0.61869114  0.12330787  0.80903971     0.20400
C1204       C  0.61742814  0.12581273  0.84102235    -0.03200
C1205       C  0.59743698  0.12268296  0.85419058    -0.06300
C1206       C  0.57865149  0.11675998  0.83538824     0.20600
C1207       C  0.59614036  0.12510163  0.88620313     0.18800
C1208       C  0.61481176  0.13051033  0.90472318    -0.17800
C1209       C  0.63451383  0.13336770  0.89173205    -0.20000
C1210       C  0.63598301  0.13103390  0.85993579     0.20300
C1211       C  0.65550410  0.13333349  0.84685825    -0.33000
C1212       C  0.65686103  0.13051541  0.81501043     0.01000
C1213       C  0.63842845  0.12585853  0.79622069    -0.24300
C1214       C  0.55861597  0.11286334  0.84875437    -0.28900
C1215       C  0.55710774  0.11510562  0.88067157     0.06700
C1216       C  0.57607937  0.12160829  0.89918542    -0.27600
H1217       H  0.56583690  0.10989381  0.78882835     0.11400
H1218       H  0.60058049  0.11566485  0.76597763     0.12500
H1219       H  0.61410837  0.13230967  0.92933281     0.11600
H1220       H  0.64858925  0.13729224  0.90661231     0.10800
H1221       H  0.66950045  0.13682932  0.86167508     0.16200
H1222       H  0.63909432  0.12333116  0.77178226     0.12100
H1223       H  0.54407592  0.10790547  0.83430930     0.15000
H1224       H  0.57496528  0.12309790  0.92380110     0.14800
C1225       C  0.63043926  0.00931844  0.81082301    -0.18100
C1226       C  0.61804999  0.98605014  0.80747589    -0.20300
C1227       C  0.61288748  0.97634539  0.77814793     0.20400
C1228       C  0.61966036  0.99037653  0.75198512    -0.03200
C1229       C  0.63236286  0.01385540  0.75534552    -0.06300
C1230       C  0.63801464  0.02328219  0.78489798     0.20600
C1231       C  0.64003316  0.02782178  0.72913657     0.18800
C1232       C  0.63416475  0.01816621  0.69983437    -0.17800
C1233       C  0.62142660  0.99493654  0.69650192    -0.20000
C1234       C  0.61446302  0.98095449  0.72241366     0.20300
C1235       C  0.60325166  0.95771008  0.71912926    -0.33000
C1236       C  0.59771180  0.94348238  0.74492327     0.01000
C1237       C  0.60195852  0.95294863  0.77447778    -0.24300
C1238       C  0.65178581  0.04644516  0.78806049    -0.28900
C1239       C  0.66049559  0.06050421  0.76210099     0.06700
C1240       C  0.65402351  0.05107570  0.73266260    -0.27600
H1241       H  0.63457757  0.01637949  0.83372531     0.11400
H1242       H  0.61290986  0.97564054  0.82782991     0.12500
H1243       H  0.63977817  0.02855313  0.67946837     0.11600
H1244       H  0.61749659  0.98787220  0.67359226     0.10800
H1245       H  0.59986680  0.95079836  0.69612195     0.16200
H1246       H  0.59770019  0.94226053  0.79449420     0.12100
H1247       H  0.65626565  0.05341470  0.81099446     0.15000
H1248       H  0.66045273  0.06166976  0.71255680     0.14800
C1249       C  0.76503941  0.96207237  0.24736188    -0.18100
C1250       C  0.76876931  0.97126061  0.21785950    -0.20300
C1251       C  0.77843032  0.99440798  0.21384963     0.20400
C1252       C  0.78406880  0.00839087  0.23993418    -0.03200
C1253       C  0.78012003  0.99908493  0.26975264    -0.06300
C1254       C  0.77080089  0.97585443  0.27339470     0.20600
C1255       C  0.78577899  0.01303850  0.29586510     0.18800
C1256       C  0.79517897  0.03617177  0.29183155    -0.17800
C1257       C  0.79930945  0.04542195  0.26230067    -0.20000
C1258       C  0.79396840  0.03168949  0.23625189     0.20300
C1259       C  0.79868579  0.04087807  0.20661925    -0.33000
C1260       C  0.79345101  0.02710787  0.18045071     0.01000
C1261       C  0.78292996  0.00383037  0.18426755    -0.24300
C1262       C  0.76764420  0.96679040  0.30297478    -0.28900
C1263       C  0.77350443  0.98052736  0.32924312     0.06700
C1264       C  0.78224906  0.00365116  0.32547019    -0.27600
H1265       H  0.75778287  0.94416428  0.24981981     0.11400
H1266       H  0.76432876  0.96027075  0.19816289     0.12500
H1267       H  0.79959209  0.04715492  0.31153134     0.11600
H1268       H  0.80684722  0.06336285  0.25983932     0.10800
H1269       H  0.80659720  0.05885136  0.20394082     0.16200
H1270       H  0.77891538  0.99313426  0.16429767     0.12100
H1271       H  0.76058867  0.94890342  0.30549497     0.15000
H1272       H  0.78675325  0.01437134  0.34548571     0.14800
C1273       C  0.77196752  0.15066863  0.94305255    -0.18100
C1274       C  0.77964446  0.14261566  0.96678635    -0.20300
C1275       C  0.78886163  0.12914935  0.96020196     0.20400
C1276       C  0.79128995  0.12457184  0.92933313    -0.03200
C1277       C  0.78409342  0.13319427  0.90536792    -0.06300
C1278       C  0.77375431  0.14571906  0.91233308     0.20600
C1279       C  0.78615056  0.12826405  0.87452406     0.18800
C1280       C  0.79571365  0.11511677  0.86791936    -0.17800
C1281       C  0.80233680  0.10612330  0.89169233    -0.20000
C1282       C  0.79983350  0.11043209  0.92243225     0.20300
C1283       C  0.80465487  0.09996932  0.94636947    -0.33000
C1284       C  0.80155458  0.10389850  0.97705644     0.01000
C1285       C  0.79453773  0.11917592  0.98390812    -0.24300
C1286       C  0.76433008  0.15200299  0.88857561    -0.28900
C1287       C  0.76573038  0.14647971  0.85799393     0.06700
C1288       C  0.77742092  0.13544638  0.85095757    -0.27600
H1289       H  0.76419065  0.16036550  0.94876158     0.11400
H1290       H  0.77766236  0.14627931  0.99034724     0.12500
H1291       H  0.79736889  0.11115446  0.84437750     0.11600
H1292       H  0.80897213  0.09539561  0.88603972     0.10800
H1293       H  0.81009821  0.08817899  0.94116789     0.16200
H1294       H  0.79189204  0.12196468  0.00762354     0.12100
H1295       H  0.75512935  0.16038248  0.89389878     0.15000
H1296       H  0.77807822  0.13083953  0.82736199     0.14800
C1297       C  0.70137878  0.13709247  0.57572182    -0.18100
C1298       C  0.69195605  0.13326447  0.54625921    -0.20300
C1299       C  0.66975849  0.12805676  0.54212487     0.20400
C1300       C  0.65698991  0.12677262  0.56806601    -0.03200
C1301       C  0.66641640  0.13036293  0.59787964    -0.06300
C1302       C  0.68874306  0.13563874  0.60165233     0.20600
C1303       C  0.65351379  0.12870097  0.62386690     0.18800
C1304       C  0.63143776  0.12385444  0.61968933    -0.17800
C1305       C  0.62218447  0.12051840  0.59017508    -0.20000
C1306       C  0.63476723  0.12179107  0.56427062     0.20300
C1307       C  0.62538416  0.11788680  0.53471271    -0.33000
C1308       C  0.63773435  0.11856063  0.50863437     0.01000
C1309       C  0.66005498  0.12389409  0.51260412    -0.24300
C1310       C  0.69811614  0.13957904  0.63123963    -0.28900
C1311       C  0.68541209  0.13794356  0.65732002     0.06700
C1312       C  0.66299439  0.13218444  0.65347529    -0.27600
H1313       H  0.71856919  0.14113903  0.57823479     0.11400
H1314       H  0.70204752  0.13436702  0.52668757     0.12500
H1315       H  0.62131528  0.12266584  0.63926619     0.11600
H1316       H  0.60508765  0.11676477  0.58762903     0.10800
H1317       H  0.60821443  0.11391725  0.53216049     0.16200
H1318       H  0.66981050  0.12461254  0.49281309     0.12100
H1319       H  0.71540819  0.14398001  0.63401489     0.15000
H1320       H  0.65321385  0.13118520  0.67338890     0.14800
C1321       C  0.51231141  0.14146447  0.39664531    -0.18100
C1322       C  0.49524461  0.14407396  0.38381442    -0.20300
C1323       C  0.48875060  0.13822635  0.35308493     0.20400
C1324       C  0.50005015  0.13035998  0.33477666    -0.03200
C1325       C  0.51714427  0.12749403  0.34784195    -0.06300
C1326       C  0.52308762  0.13280097  0.37905051     0.20600
C1327       C  0.52768873  0.11855964  0.33000371     0.18800
C1328       C  0.52180990  0.11357227  0.29890865    -0.17800
C1329       C  0.50501909  0.11660245  0.28589623    -0.20000
C1330       C  0.49371866  0.12457405  0.30377322     0.20300
C1331       C  0.47565977  0.12603018  0.29159396    -0.33000
C1332       C  0.46354936  0.13274514  0.31023898     0.01000
C1333       C  0.47062285  0.13933595  0.34074367    -0.24300
C1334       C  0.53905859  0.12856305  0.39243998    -0.28900
C1335       C  0.54873199  0.11848795  0.37528459     0.06700
C1336       C  0.54331869  0.11403138  0.34384918    -0.27600
H1337       H  0.51669954  0.14570653  0.42058410     0.11400
H1338       H  0.48681203  0.15026354  0.39813341     0.12500
H1339       H  0.52987808  0.10687671  0.28479547     0.11600
H1340       H  0.50049361  0.11218168  0.26202849     0.10800
H1341       H  0.47034719  0.12086011  0.26810448     0.16200
H1342       H  0.46158267  0.14474406  0.35524205     0.12100
H1343       H  0.54312918  0.13208708  0.41660071     0.15000
H1344       H  0.55093661  0.10657894  0.33028863     0.14800
C1345       C  0.48100300  0.96815676  0.46469606    -0.18100
C1346       C  0.49854000  0.98587327  0.44871082    -0.20300
C1347       C  0.50965164  0.00755276  0.46113436     0.20400
C1348       C  0.50283755  0.01135181  0.48990419    -0.03200
C1349       C  0.48510334  0.99345787  0.50604321    -0.06300
C1350       C  0.47420900  0.97175583  0.49342967     0.20600
C1351       C  0.47837835  0.99729469  0.53486331     0.18800
C1352       C  0.48936817  0.01897669  0.54718287    -0.17800
C1353       C  0.50689134  0.03665431  0.53124582    -0.20000
C1354       C  0.51377525  0.03301660  0.50265087     0.20300
C1355       C  0.53141168  0.05070417  0.48667717    -0.33000
C1356       C  0.53846870  0.04721303  0.45795346     0.01000
C1357       C  0.52741684  0.02546743  0.44536129    -0.24300
C1358       C  0.45684348  0.95402650  0.50984461    -0.28900
C1359       C  0.45009968  0.95759313  0.53885248     0.06700
C1360       C  0.46093513  0.97941207  0.55099878    -0.27600
H1361       H  0.47279431  0.95159433  0.45460894     0.11400
H1362       H  0.50345454  0.98259316  0.42664431     0.12500
H1363       H  0.48445827  0.02226629  0.56924532     0.11600
H1364       H  0.51510873  0.05320988  0.54135356     0.10800
H1365       H  0.53967315  0.06727261  0.49676773     0.16200
H1366       H  0.53254018  0.02248065  0.42325193     0.12100
H1367       H  0.44865373  0.93738276  0.49999705     0.15000
H1368       H  0.45599177  0.98246931  0.57319890     0.14800
C1369       C  0.69126565  0.03988029  0.36252019    -0.18100
C1370       C  0.70251480  0.02805809  0.36681509    -0.20300
C1371       C  0.70631738  0.02275830  0.39649370     0.20400
C1372       C  0.69889825  0.02978658  0.42206710    -0.03200
C1373       C  0.68736952  0.04157202  0.41773061    -0.06300
C1374       C  0.68347718  0.04651129  0.38781385     0.20600
C1375       C  0.67934174  0.04797623  0.44328553     0.18800
C1376       C  0.68340410  0.04294683  0.47297300    -0.17800
C1377       C  0.69497995  0.03146522  0.47728285    -0.20000
C1378       C  0.70258600  0.02466115  0.45198027     0.20300
C1379       C  0.71332470  0.01234142  0.45616318    -0.33000
C1380       C  0.72015286  0.00447663  0.43089508     0.01000
C1381       C  0.71690417  0.01014021  0.40103758    -0.24300
C1382       C  0.67132876  0.05744203  0.38359503    -0.28900
C1383       C  0.66241055  0.06317309  0.40880076     0.06700
C1384       C  0.66691004  0.05873148  0.43868716    -0.27600
H1385       H  0.68835846  0.04355240  0.33933753     0.11400
H1386       H  0.70804945  0.02287214  0.34688943     0.12500
H1387       H  0.67743081  0.04769354  0.49287555     0.11600
H1388       H  0.69769953  0.02760794  0.50045670     0.10800
H1389       H  0.71580362  0.00838124  0.47940340     0.16200
H1390       H  0.72202203  0.00425220  0.38140553     0.12100
H1391       H  0.66822151  0.06081439  0.36034508     0.15000
H1392       H  0.66017559  0.06296840  0.45825837     0.14800
C1393       C  0.55031892  0.85170166  0.92917282    -0.18100
C1394       C  0.54566794  0.85667089  0.95836597    -0.20300
C1395       C  0.53563608  0.86974949  0.96163713     0.20400
C1396       C  0.53018659  0.87783581  0.93510561    -0.03200
C1397       C  0.53509239  0.87300004  0.90559964    -0.06300
C1398       C  0.54516630  0.85984766  0.90271339     0.20600
C1399       C  0.52995628  0.88133872  0.87905140     0.18800
C1400       C  0.51968322  0.89421431  0.88234609    -0.17800
C1401       C  0.51460884  0.89881112  0.91155172    -0.20000
C1402       C  0.51982922  0.89073257  0.93803182     0.20300
C1403       C  0.51478926  0.89525283  0.96735839    -0.33000
C1404       C  0.52019672  0.88732065  0.99398812     0.01000
C1405       C  0.53082894  0.87474291  0.99091693    -0.24300
C1406       C  0.55000904  0.85509346  0.87345475    -0.28900
C1407       C  0.54521357  0.86346556  0.84672337     0.06700
C1408       C  0.53519258  0.87666089  0.84976759    -0.27600
H1409       H  0.55804815  0.84153725  0.92729240     0.11400
H1410       H  0.54988257  0.85023533  0.97839893     0.12500
H1411       H  0.51554073  0.90071626  0.86231953     0.11600
H1412       H  0.50663147  0.90874643  0.91342987     0.10800
H1413       H  0.50671250  0.90509411  0.96944473     0.16200
H1414       H  0.53490148  0.86844155  0.01124112     0.12100
H1415       H  0.55781251  0.84498835  0.87158894     0.15000
H1416       H  0.53129710  0.88309186  0.82942677     0.14800
C1417       C  0.34895903  0.86172947  0.11150826    -0.18100
C1418       C  0.36861575  0.86415240  0.09883540    -0.20300
C1419       C  0.38793242  0.87172198  0.11694335     0.20400
C1420       C  0.38714021  0.87622361  0.14839116    -0.03200
C1421       C  0.36722481  0.87349871  0.16126580    -0.06300
C1422       C  0.34817000  0.86664928  0.14260671     0.20600
C1423       C  0.36664168  0.87833353  0.19260406     0.18800
C1424       C  0.38576194  0.88546043  0.21089243    -0.17800
C1425       C  0.40551212  0.88841305  0.19809332    -0.20000
C1426       C  0.40644443  0.88411711  0.16682779     0.20300
C1427       C  0.42654323  0.88823143  0.15356324    -0.33000
C1428       C  0.42775106  0.88441280  0.12207653     0.01000
C1429       C  0.40818935  0.87556998  0.10403558    -0.24300
C1430       C  0.32897592  0.86557371  0.15515236    -0.28900
C1431       C  0.32852607  0.87104286  0.18623769     0.06700
C1432       C  0.34726108  0.87677526  0.20492466    -0.27600
H1433       H  0.33446264  0.85632948  0.09684461     0.11400
H1434       H  0.36884017  0.86055010  0.07468804     0.12500
H1435       H  0.38558998  0.88922535  0.23499037     0.11600
H1436       H  0.42018162  0.89439581  0.21257799     0.10800
H1437       H  0.44144629  0.89482831  0.16773231     0.16200
H1438       H  0.40897059  0.87267179  0.07974542     0.12100
H1439       H  0.31461287  0.86103194  0.14053816     0.15000
H1440       H  0.34721015  0.88115013  0.22879846     0.14800
C1441       C  0.54641063  0.03598143  0.22584110    -0.18100
C1442       C  0.53681285  0.01942740  0.20325961    -0.20300
C1443       C  0.52772140  0.99682749  0.21104187     0.20400
C1444       C  0.52732286  0.99071541  0.24207882    -0.03200
C1445       C  0.53652450  0.00737865  0.26494954    -0.06300
C1446       C  0.54673576  0.03015921  0.25660989     0.20600
C1447       C  0.53654169  0.00131779  0.29591249     0.18800
C1448       C  0.52697987  0.97866906  0.30379873    -0.17800
C1449       C  0.51836297  0.96218896  0.28100693    -0.20000
C1450       C  0.51886119  0.96809174  0.25005689     0.20300
C1451       C  0.51226418  0.95200184  0.22678496    -0.33000
C1452       C  0.51358589  0.95822700  0.19580904     0.01000
C1453       C  0.52031118  0.98040950  0.18814966    -0.24300
C1454       C  0.55797267  0.04670401  0.27895329    -0.28900
C1455       C  0.55846724  0.04068744  0.30953980     0.06700
C1456       C  0.54711884  0.01807928  0.31815746    -0.27600
H1457       H  0.55402485  0.05337421  0.21913732     0.11400
H1458       H  0.53722673  0.02436463  0.17954119     0.12500
H1459       H  0.52685453  0.97376361  0.32746844     0.11600
H1460       H  0.51179417  0.94488285  0.28750651     0.10800
H1461       H  0.50704079  0.93483165  0.23261556     0.16200
H1462       H  0.52158711  0.98521411  0.16419997     0.12100
H1463       H  0.56681921  0.06421777  0.27251297     0.15000
H1464       H  0.54783613  0.01357455  0.34182876     0.14800
C1465       C  0.64052238  0.95412029  0.03409872    -0.18100
C1466       C  0.66376734  0.96549529  0.03012561    -0.20300
C1467       C  0.67827181  0.97501917  0.05536974     0.20400
C1468       C  0.66928840  0.97215738  0.08504951    -0.03200
C1469       C  0.64580434  0.96060547  0.08906008    -0.06300
C1470       C  0.63129516  0.95199107  0.06340409     0.20600
C1471       C  0.63689886  0.95841817  0.11864961     0.18800
C1472       C  0.65136034  0.96697477  0.14407013    -0.17800
C1473       C  0.67454849  0.97847133  0.14008845    -0.20000
C1474       C  0.68373270  0.98156972  0.11062242     0.20300
C1475       C  0.70700253  0.99465778  0.10621207    -0.33000
C1476       C  0.71607652  0.99869118  0.07647597     0.01000
C1477       C  0.70151846  0.98809796  0.05130553    -0.24300
C1478       C  0.60796240  0.94216586  0.06740905    -0.28900
C1479       C  0.59900258  0.94090513  0.09682413     0.06700
C1480       C  0.61374062  0.94846346  0.12232384    -0.27600
H1481       H  0.62976909  0.94745301  0.01412526     0.11400
H1482       H  0.67040433  0.96735203  0.00714943     0.12500
H1483       H  0.64473054  0.96527702  0.16702480     0.11600
H1484       H  0.68529831  0.98539786  0.16002239     0.10800
H1485       H  0.71790629  0.00251676  0.12578577     0.16200
H1486       H  0.70818082  0.99068192  0.02824162     0.12100
H1487       H  0.59694023  0.93621912  0.04761518     0.15000
H1488       H  0.60730771  0.94734032  0.14528879     0.14800
C1489       C  0.51537889  0.03517850  0.03247922    -0.18100
C1490       C  0.51474699  0.01752671  0.04896867    -0.20300
C1491       C  0.50222876  0.99550353  0.03807626     0.20400
C1492       C  0.49003158  0.99126588  0.01037241    -0.03200
C1493       C  0.49065291  0.00912626  0.99369339    -0.06300
C1494       C  0.50347414  0.03115068  0.00479931     0.20600
C1495       C  0.47858998  0.00496540  0.96587363     0.18800
C1496       C  0.46583951  0.98288309  0.95519743    -0.17800
C1497       C  0.46521437  0.96519677  0.97171064    -0.20000
C1498       C  0.47734758  0.96923201  0.99922186     0.20300
C1499       C  0.47714197  0.95164514  0.01562067    -0.33000
C1500       C  0.48949226  0.95566270  0.04315405     0.01000
C1501       C  0.50185583  0.97772299  0.05428481    -0.24300
C1502       C  0.50430125  0.04883459  0.98804949    -0.28900
C1503       C  0.49250152  0.04504716  0.96010309     0.06700
C1504       C  0.47958527  0.02293532  0.94922573    -0.27600
H1505       H  0.52527909  0.05203620  0.04134543     0.11400
H1506       H  0.52416676  0.02113022  0.07018969     0.12500
H1507       H  0.45641249  0.97928597  0.93398437     0.11600
H1508       H  0.45531437  0.94833883  0.96284981     0.10800
H1509       H  0.46738279  0.93477424  0.00673365     0.16200
H1510       H  0.51131140  0.98110639  0.07545175     0.12100
H1511       H  0.51433162  0.06568399  0.99690842     0.15000
H1512       H  0.47040541  0.01970948  0.92783644     0.14800
C1513       C  0.47328019  0.17500356  0.78543542    -0.18100
C1514       C  0.46970279  0.19164292  0.77319059    -0.20300
C1515       C  0.45921111  0.20068197  0.79068046     0.20400
C1516       C  0.45302831  0.19344117  0.82125448    -0.03200
C1517       C  0.45696902  0.17687939  0.83379165    -0.06300
C1518       C  0.46663404  0.16722468  0.81551911     0.20600
C1519       C  0.45044239  0.16938289  0.86418219     0.18800
C1520       C  0.44052970  0.17886808  0.88199323    -0.17800
C1521       C  0.43635636  0.19502789  0.86945617    -0.20000
C1522       C  0.44221347  0.20216603  0.83896192     0.20300
C1523       C  0.43686502  0.21736275  0.82560946    -0.33000
C1524       C  0.44242766  0.22426322  0.79483127     0.01000
C1525       C  0.45415169  0.21625944  0.77781368    -0.24300
C1526       C  0.46860661  0.14934886  0.82716772    -0.28900
C1527       C  0.46128569  0.14113863  0.85702791     0.06700
C1528       C  0.45298780  0.15184830  0.87575051    -0.27600
H1529       H  0.48086979  0.16790593  0.77113610     0.11400
H1530       H  0.47465486  0.19705008  0.74973347     0.12500
H1531       H  0.43546013  0.17336142  0.90539344     0.11600
H1532       H  0.42818197  0.20166335  0.88346622     0.10800
H1533       H  0.42806681  0.22359772  0.83908968     0.16200
H1534       H  0.45849047  0.22140871  0.75412863     0.12100
H1535       H  0.47515080  0.14133437  0.81263074     0.15000
H1536       H  0.44717847  0.14561964  0.89871839     0.14800
C1537       C  0.36404552  0.17791597  0.64344012    -0.18100
C1538       C  0.34694442  0.16061915  0.62628503    -0.20300
C1539       C  0.32448612  0.15216183  0.63412970     0.20400
C1540       C  0.31928502  0.16144650  0.65942827    -0.03200
C1541       C  0.33655750  0.17888938  0.67679861    -0.06300
C1542       C  0.35901346  0.18707002  0.66878121     0.20600
C1543       C  0.33134983  0.18802478  0.70225990     0.18800
C1544       C  0.30888881  0.17979072  0.70985425    -0.17800
C1545       C  0.29179157  0.16255934  0.69263191    -0.20000
C1546       C  0.29684066  0.15320808  0.66754011     0.20300
C1547       C  0.27980369  0.13561382  0.65065200    -0.33000
C1548       C  0.28471574  0.12588918  0.62564213     0.01000
C1549       C  0.30718207  0.13448061  0.61734422    -0.24300
C1550       C  0.37607819  0.20421274  0.68625435    -0.28900
C1551       C  0.37115541  0.21341136  0.71186462     0.06700
C1552       C  0.34865917  0.20517101  0.71967717    -0.27600
H1553       H  0.38124783  0.18407571  0.63695300     0.11400
H1554       H  0.35130056  0.15378090  0.60695403     0.12500
H1555       H  0.30453491  0.18661629  0.72920396     0.11600
H1556       H  0.27458783  0.15643281  0.69908046     0.10800
H1557       H  0.26260744  0.12940866  0.65724701     0.16200
H1558       H  0.31121966  0.12726568  0.59812673     0.12100
H1559       H  0.39329205  0.21033212  0.67984143     0.15000
H1560       H  0.34460514  0.21212720  0.73918930     0.14800
C1561       C  0.22108955  0.08459767  0.97629087    -0.18100
C1562       C  0.21827205  0.06498422  0.96299792    -0.20300
C1563       C  0.21107173  0.04564887  0.98077309     0.20400
C1564       C  0.20655459  0.04606402  0.01227343    -0.03200
C1565       C  0.20917197  0.06584691  0.02565973    -0.06300
C1566       C  0.21660006  0.08519519  0.00755962     0.20600
C1567       C  0.20463557  0.06634775  0.05715983     0.18800
C1568       C  0.19767876  0.04703430  0.07497446    -0.17800
C1569       C  0.19532825  0.02750962  0.06178890    -0.20000
C1570       C  0.19973860  0.02684552  0.03046727     0.20300
C1571       C  0.19785815  0.00747700  0.01714376    -0.33000
C1572       C  0.20251114  0.00697328  0.98573261     0.01000
C1573       C  0.20878680  0.02609650  0.96768524    -0.24300
C1574       C  0.21971360  0.10492142  0.02105235    -0.28900
C1575       C  0.21531235  0.10572432  0.05244398     0.06700
C1576       C  0.20749364  0.08622820  0.07031161    -0.27600
H1577       H  0.22685478  0.09935037  0.96209889     0.11400
H1578       H  0.22192302  0.06500274  0.93883157     0.12500
H1579       H  0.19421707  0.04707418  0.09919748     0.11600
H1580       H  0.19012310  0.01292778  0.07614842     0.10800
H1581       H  0.19308463  0.99289939  0.03135338     0.16200
H1582       H  0.21272089  0.02607157  0.94362873     0.12100
H1583       H  0.22572736  0.11980348  0.00702939     0.15000
H1584       H  0.20435797  0.08673825  0.09456867     0.14800
C1585       C  0.36363018  0.22819396  0.94926623    -0.18100
C1586       C  0.34763888  0.21925584  0.97252254    -0.20300
C1587       C  0.32480347  0.20736002  0.96516391     0.20400
C1588       C  0.31799360  0.20338874  0.93409875    -0.03200
C1589       C  0.33414605  0.21185480  0.91065861    -0.06300
C1590       C  0.35702654  0.22496506  0.91832001     0.20600
C1591       C  0.32733189  0.20830421  0.87957999     0.18800
C1592       C  0.30450238  0.19590485  0.87225029    -0.17800
C1593       C  0.28846963  0.18803737  0.89549632    -0.20000
C1594       C  0.29504527  0.19213278  0.92641916     0.20300
C1595       C  0.27918627  0.18640090  0.94969846    -0.33000
C1596       C  0.28603864  0.19123985  0.98044396     0.01000
C1597       C  0.30867761  0.20066405  0.98821775    -0.24300
C1598       C  0.37274880  0.23556867  0.89494713    -0.28900
C1599       C  0.36591305  0.23264613  0.86409714     0.06700
C1600       C  0.34337886  0.21831504  0.85644031    -0.27600
H1601       H  0.38113455  0.23808304  0.95549027     0.11400
H1602       H  0.35310266  0.22241798  0.99626510     0.12500
H1603       H  0.29902386  0.19302496  0.84850746     0.11600
H1604       H  0.27092626  0.17926445  0.88926244     0.10800
H1605       H  0.26163690  0.17903645  0.94389463     0.16200
H1606       H  0.31386413  0.20454274  0.01202781     0.12100
H1607       H  0.39018139  0.24672786  0.90072244     0.15000
H1608       H  0.33814860  0.21641216  0.83259206     0.14800
C1609       C  0.31244094  0.14433210  0.21497354    -0.18100
C1610       C  0.29445904  0.14380476  0.19956729    -0.20300
C1611       C  0.29810595  0.15737538  0.17376144     0.20400
C1612       C  0.32007177  0.17165304  0.16335826    -0.03200
C1613       C  0.33824356  0.17216913  0.17891381    -0.06300
C1614       C  0.33438306  0.15841733  0.20482146     0.20600
C1615       C  0.36022282  0.18634392  0.16846006     0.18800
C1616       C  0.36385847  0.19998057  0.14270432    -0.17800
C1617       C  0.34584757  0.19946030  0.12728274    -0.20000
C1618       C  0.32387377  0.18530655  0.13734832     0.20300
C1619       C  0.30564938  0.18446382  0.12179757    -0.33000
C1620       C  0.28364046  0.17017972  0.13199231     0.01000
C1621       C  0.28012280  0.15677957  0.15812462    -0.24300
C1622       C  0.35248065  0.15887232  0.22004501    -0.28900
C1623       C  0.37447400  0.17279733  0.20964989     0.06700
C1624       C  0.37815708  0.18655426  0.18383684    -0.27600
H1625       H  0.30917240  0.13366011  0.23480036     0.11400
H1626       H  0.27766674  0.13272678  0.20781472     0.12500
H1627       H  0.38064665  0.21100268  0.13440234     0.11600
H1628       H  0.34910691  0.21008404  0.10740435     0.10800
H1629       H  0.30861373  0.19486814  0.10173780     0.16200
H1630       H  0.26329806  0.14561721  0.16622105     0.12100
H1631       H  0.34938458  0.14821801  0.23985941     0.15000
H1632       H  0.39500572  0.19746755  0.17563489     0.14800
C1633       C  0.36002289  0.35426851  0.70201141    -0.18100
C1634       C  0.34846063  0.36581712  0.69828683    -0.20300
C1635       C  0.34343936  0.37487044  0.72376897     0.20400
C1636       C  0.35031720  0.37252397  0.75326206    -0.03200
C1637       C  0.36216287  0.36096392  0.75699968    -0.06300
C1638       C  0.36689405  0.35162410  0.73127611     0.20600
C1639       C  0.36889655  0.35841349  0.78650456     0.18800
C1640       C  0.36395267  0.36758068  0.81196636    -0.17800
C1641       C  0.35211052  0.37889771  0.80827675    -0.20000
C1642       C  0.34505983  0.38139310  0.77902829     0.20300
C1643       C  0.33258241  0.39224063  0.77511777    -0.33000
C1644       C  0.32541882  0.39443584  0.74565895     0.01000
C1645       C  0.33130994  0.38587382  0.72017819    -0.24300
C1646       C  0.37787888  0.33934599  0.73531356    -0.28900
C1647       C  0.38413661  0.33616070  0.76482261     0.06700
C1648       C  0.37994072  0.34626036  0.79017170    -0.27600
H1649       H  0.36342976  0.34723986  0.68198972     0.11400
H1650       H  0.34322483  0.36746585  0.67543265     0.12500
H1651       H  0.36901111  0.36575211  0.83485007     0.11600
H1652       H  0.34832579  0.38555808  0.82836189     0.10800
H1653       H  0.32820207  0.39862950  0.79494583     0.16200
H1654       H  0.32601652  0.38726769  0.69724218     0.12100
H1655       H  0.38085140  0.33166041  0.71564788     0.15000
H1656       H  0.38470664  0.34415346  0.81311654     0.14800
C1657       C  0.22763098  0.19407456  0.26229862    -0.18100
C1658       C  0.22329672  0.19905561  0.29171898    -0.20300
C1659       C  0.20936498  0.20808014  0.29566775     0.20400
C1660       C  0.19977732  0.21216349  0.26953256    -0.03200
C1661       C  0.20434563  0.20734989  0.23975536    -0.06300
C1662       C  0.21823081  0.19814327  0.23621601     0.20600
C1663       C  0.19495799  0.21166141  0.21358731     0.18800
C1664       C  0.18090192  0.22054520  0.21754973    -0.17800
C1665       C  0.17620639  0.22510227  0.24702274    -0.20000
C1666       C  0.18558882  0.22100549  0.27311974     0.20300
C1667       C  0.18099665  0.22559581  0.30270528    -0.33000
C1668       C  0.19052163  0.22171201  0.32905395     0.01000
C1669       C  0.20481087  0.21301399  0.32522956    -0.24300
C1670       C  0.22237030  0.19300725  0.20670547    -0.28900
C1671       C  0.21311924  0.19719974  0.18039764     0.06700
C1672       C  0.19962053  0.20681564  0.18402663    -0.27600
H1673       H  0.23836341  0.18701867  0.25994587     0.11400
H1674       H  0.23079081  0.19576144  0.31141696     0.12500
H1675       H  0.17345460  0.22389305  0.19784519     0.11600
H1676       H  0.16523988  0.23188551  0.24940216     0.10800
H1677       H  0.17003391  0.23238782  0.30512970     0.16200
H1678       H  0.21216682  0.20984737  0.34521415     0.12100
H1679       H  0.23294237  0.18576644  0.20419808     0.15000
H1680       H  0.19230690  0.20996573  0.16397652     0.14800
C1681       C  0.19988628  0.15772121  0.57391438    -0.18100
C1682       C  0.19737549  0.17501538  0.56163646    -0.20300
C1683       C  0.19887118  0.17889060  0.52983323     0.20400
C1684       C  0.20246336  0.16488783  0.51015668    -0.03200
C1685       C  0.20530927  0.14760954  0.52259150    -0.06300
C1686       C  0.20414190  0.14409715  0.55465326     0.20600
C1687       C  0.21000699  0.13432310  0.50301485     0.18800
C1688       C  0.21087211  0.13778295  0.47115811    -0.17800
C1689       C  0.20775582  0.15468268  0.45882991    -0.20000
C1690       C  0.20391444  0.16857430  0.47814156     0.20300
C1691       C  0.20231020  0.18655058  0.46608154    -0.33000
C1692       C  0.19973699  0.20125250  0.48563668     0.01000
C1693       C  0.19756573  0.19694920  0.51749151    -0.24300
C1694       C  0.20796318  0.12752957  0.56693194    -0.28900
C1695       C  0.21367879  0.11495408  0.54764781     0.06700
C1696       C  0.21439972  0.11827525  0.51568517    -0.27600
H1697       H  0.19894485  0.15529266  0.59856373     0.11400
H1698       H  0.19456981  0.18557329  0.57708791     0.12500
H1699       H  0.21429967  0.12762595  0.45577804     0.11600
H1700       H  0.20884825  0.15720762  0.43419716     0.10800
H1701       H  0.20411006  0.18967844  0.44157211     0.16200
H1702       H  0.19549275  0.20804266  0.53285754     0.12100
H1703       H  0.20758782  0.12517722  0.59158678     0.15000
H1704       H  0.21869053  0.10854122  0.50071663     0.14800
C1705       C  0.21533060  0.37304750  0.56273319    -0.18100
C1706       C  0.20734080  0.35672709  0.53969663    -0.20300
C1707       C  0.19932252  0.33421677  0.54708110     0.20400
C1708       C  0.19838225  0.32792815  0.57813771    -0.03200
C1709       C  0.20585448  0.34431999  0.60146530    -0.06300
C1710       C  0.21502757  0.36707824  0.59361266     0.20600
C1711       C  0.20518537  0.33806878  0.63248755     0.18800
C1712       C  0.19675025  0.31549381  0.63993084    -0.17800
C1713       C  0.18991004  0.29935191  0.61675954    -0.20000
C1714       C  0.19102632  0.30545679  0.58578510     0.20300
C1715       C  0.18597660  0.28975195  0.56227273    -0.33000
C1716       C  0.18763160  0.29612007  0.53128326     0.01000
C1717       C  0.19339730  0.31812485  0.52388332    -0.24300
C1718       C  0.22468416  0.38350011  0.61660199    -0.28900
C1719       C  0.22453525  0.37734573  0.64737279     0.06700
C1720       C  0.21405389  0.35462406  0.65532657    -0.27600
H1721       H  0.22215799  0.39040688  0.55632733     0.22200
H1722       H  0.20815687  0.36182853  0.51598083     0.12500
H1723       H  0.19613671  0.31042432  0.66362466     0.11600
H1724       H  0.18417369  0.28215757  0.62303715     0.10800
H1725       H  0.18146110  0.27274969  0.56800173     0.16200
H1726       H  0.19490657  0.32310389  0.49998964     0.12100
H1727       H  0.23293377  0.40106620  0.61052476     0.15000
H1728       H  0.21433592  0.34995721  0.67903955     0.14800
C1729       C  0.29613078  0.44915772  0.96061026    -0.18100
C1730       C  0.28665549  0.44557689  0.93123999    -0.20300
C1731       C  0.29993588  0.45008536  0.90497177     0.20400
C1732       C  0.32302441  0.45838990  0.90827618    -0.03200
C1733       C  0.33265828  0.46226890  0.93799317    -0.06300
C1734       C  0.31910656  0.45750377  0.96429671     0.20600
C1735       C  0.35583019  0.47104414  0.94136271     0.18800
C1736       C  0.36911181  0.47555526  0.91506769    -0.17800
C1737       C  0.35951682  0.47142434  0.88565855    -0.20000
C1738       C  0.33647424  0.46286720  0.88193798     0.20300
C1739       C  0.32664689  0.45873668  0.85244171    -0.33000
C1740       C  0.30356236  0.45049929  0.84894662     0.01000
C1741       C  0.29045045  0.44636688  0.87550338    -0.24300
C1742       C  0.32878255  0.46148611  0.99377828    -0.28900
C1743       C  0.35195139  0.47079088  0.99732106     0.06700
C1744       C  0.36532845  0.47540270  0.97092966    -0.27600
H1745       H  0.28548248  0.44551221  0.98046780     0.11400
H1746       H  0.26887562  0.43920597  0.92907200     0.12500
H1747       H  0.38695521  0.48229853  0.91724315     0.11600
H1748       H  0.37015442  0.47502260  0.86580112     0.10800
H1749       H  0.33697158  0.46211579  0.83227622     0.16200
H1750       H  0.27265731  0.43995894  0.87332589     0.12100
H1751       H  0.31841552  0.45808390  0.01391120     0.15000
H1752       H  0.38321492  0.48247763  0.97341952     0.14800
C1753       C  0.30132007  0.35147324  0.03746284    -0.18100
C1754       C  0.28921564  0.32827348  0.03311609    -0.20300
C1755       C  0.28297534  0.31366964  0.05832693     0.20400
C1756       C  0.28838233  0.32247357  0.08825967    -0.03200
C1757       C  0.30055058  0.34593252  0.09264938    -0.06300
C1758       C  0.30736054  0.36052923  0.06710696     0.20600
C1759       C  0.30640293  0.35473600  0.12253495     0.18800
C1760       C  0.29964867  0.34012769  0.14779708    -0.17800
C1761       C  0.28769289  0.31692361  0.14343932    -0.20000
C1762       C  0.28220987  0.30786946  0.11374353     0.20300
C1763       C  0.27138668  0.28456269  0.10903941    -0.33000
C1764       C  0.26680574  0.27567796  0.07911266     0.01000
C1765       C  0.27211102  0.29045440  0.05399416    -0.24300
C1766       C  0.32054634  0.38383710  0.07158256    -0.28900
C1767       C  0.32705018  0.39277483  0.10133139     0.06700
C1768       C  0.31940498  0.37795769  0.12666468    -0.27600
H1769       H  0.30626098  0.36233289  0.01757300     0.11400
H1770       H  0.28510600  0.32174162  0.00993728     0.12500
H1771       H  0.30396315  0.34665543  0.17095864     0.11600
H1772       H  0.28306500  0.30605851  0.16329866     0.10800
H1773       H  0.26738822  0.27347007  0.12855679     0.16200
H1774       H  0.26848141  0.28396479  0.03075729     0.12100
H1775       H  0.32618381  0.39492160  0.05190363     0.15000
H1776       H  0.32405650  0.38440780  0.14982577     0.14800
C1777       C  0.47438299  0.36670418  0.62602007    -0.18100
C1778       C  0.48056180  0.37610604  0.59671069    -0.20300
C1779       C  0.47116941  0.36290232  0.57037830     0.20400
C1780       C  0.45545905  0.33995785  0.57354490    -0.03200
C1781       C  0.44942847  0.33037411  0.60322143    -0.06300
C1782       C  0.45885166  0.34386596  0.62958697     0.20600
C1783       C  0.43412019  0.30732027  0.60649873     0.18800
C1784       C  0.42467258  0.29413928  0.58010495    -0.17800
C1785       C  0.43038608  0.30370779  0.55072998    -0.20000
C1786       C  0.44583026  0.32661415  0.54712093     0.20300
C1787       C  0.45182694  0.33642283  0.51767325    -0.33000
C1788       C  0.46761154  0.35937432  0.51433692     0.01000
C1789       C  0.47721657  0.37235009  0.54099112    -0.24300
C1790       C  0.45286586  0.33427459  0.65903026    -0.28900
C1791       C  0.43809675  0.31120962  0.66253417     0.06700
C1792       C  0.42874844  0.29785724  0.63607406    -0.27600
H1793       H  0.48187402  0.37729975  0.64593210     0.11400
H1794       H  0.49267268  0.39377720  0.59464264     0.12500
H1795       H  0.41284018  0.27639659  0.58217650     0.11600
H1796       H  0.42279843  0.29314850  0.53081316     0.10800
H1797       H  0.44433645  0.32619588  0.49744080     0.16200
H1798       H  0.48929928  0.39004098  0.53897326     0.12100
H1799       H  0.46029640  0.34461153  0.67919787     0.15000
H1800       H  0.41726273  0.28005087  0.63853236     0.14800
C1801       C  0.44516520  0.27282132  0.38058056    -0.18100
C1802       C  0.44185418  0.25319267  0.36671672    -0.20300
C1803       C  0.44761880  0.25321416  0.33585476     0.20400
C1804       C  0.45749371  0.27332464  0.31902673    -0.03200
C1805       C  0.46065650  0.29313483  0.33296890    -0.06300
C1806       C  0.45416551  0.29278113  0.36376882     0.20600
C1807       C  0.46941705  0.31302451  0.31572005     0.18800
C1808       C  0.47595341  0.31320289  0.28519032    -0.17800
C1809       C  0.47303663  0.29362190  0.27147465    -0.20000
C1810       C  0.46340258  0.27345924  0.28796921     0.20300
C1811       C  0.45878382  0.25330408  0.27370349    -0.33000
C1812       C  0.44789328  0.23299247  0.29000351     0.01000
C1813       C  0.44291725  0.23329443  0.32129041    -0.24300
C1814       C  0.45575447  0.31205903  0.37676423    -0.28900
C1815       C  0.46309111  0.33151363  0.35909412     0.06700
C1816       C  0.47051842  0.33205833  0.32885279    -0.27600
H1817       H  0.44012515  0.27224585  0.40423283     0.11400
H1818       H  0.43433933  0.23786673  0.37997336     0.12500
H1819       H  0.48286468  0.32838537  0.27167593     0.11600
H1820       H  0.47779298  0.29412958  0.24769850     0.10800
H1821       H  0.46266995  0.25326791  0.24963647     0.16200
H1822       H  0.43480505  0.21781557  0.33423911     0.12100
H1823       H  0.44990643  0.31144715  0.39998776     0.15000
H1824       H  0.47638473  0.34706207  0.31514762     0.14800
C1825       C  0.43525564  0.46102951  0.30681022    -0.18100
C1826       C  0.42652041  0.46884691  0.28430173    -0.20300
C1827       C  0.43254276  0.46955668  0.25345933     0.20400
C1828       C  0.44756848  0.46240170  0.24511089    -0.03200
C1829       C  0.45597280  0.45401498  0.26772973    -0.06300
C1830       C  0.44987484  0.45350595  0.29872747     0.20600
C1831       C  0.46993434  0.44556659  0.25925322     0.18800
C1832       C  0.47592598  0.44627631  0.22835740    -0.17800
C1833       C  0.46799056  0.45509176  0.20598098    -0.20000
C1834       C  0.45365121  0.46300240  0.21407900     0.20300
C1835       C  0.44454933  0.47065196  0.19160761    -0.33000
C1836       C  0.42883616  0.47681958  0.19976514     0.01000
C1837       C  0.42316223  0.47654524  0.23069582    -0.24300
C1838       C  0.45791997  0.44481333  0.32100840    -0.28900
C1839       C  0.47109759  0.43570030  0.31256243     0.06700
C1840       C  0.47709348  0.43602587  0.28175606    -0.27600
H1841       H  0.43027910  0.46051168  0.33048441     0.11400
H1842       H  0.41492299  0.47419276  0.29098656     0.12500
H1843       H  0.48662826  0.43987946  0.22147179     0.11600
H1844       H  0.47271190  0.45531334  0.18224730     0.10800
H1845       H  0.44853795  0.47041564  0.16761572     0.16200
H1846       H  0.41090102  0.48115499  0.23689560     0.12100
H1847       H  0.45287981  0.44393450  0.34475767     0.15000
H1848       H  0.48702236  0.42861901  0.27537983     0.14800
C1849       C  0.34665948  0.30497457  0.47169801    -0.18100
C1850       C  0.32339218  0.29308345  0.47545197    -0.20300
C1851       C  0.30907526  0.28969859  0.45050174     0.20400
C1852       C  0.31824142  0.29774752  0.42130105    -0.03200
C1853       C  0.34174384  0.30969512  0.41750588    -0.06300
C1854       C  0.35610291  0.31367844  0.44289696     0.20600
C1855       C  0.35083880  0.31812847  0.38842666     0.18800
C1856       C  0.33655075  0.31428000  0.36330307    -0.17800
C1857       C  0.31334925  0.30257757  0.36708543    -0.20000
C1858       C  0.30397014  0.29442852  0.39604410     0.20300
C1859       C  0.28067469  0.28374360  0.40035746    -0.33000
C1860       C  0.27143867  0.27656250  0.42972397     0.01000
C1861       C  0.28582673  0.27909911  0.45447266    -0.24300
C1862       C  0.37954492  0.32667634  0.43914447    -0.28900
C1863       C  0.38876517  0.33561171  0.41019315     0.06700
C1864       C  0.37406256  0.33074713  0.38496167    -0.27600
H1865       H  0.35727395  0.30765234  0.49145495     0.11400
H1866       H  0.31659585  0.28689204  0.49805772     0.12500
H1867       H  0.34334413  0.32065698  0.34075217     0.11600
H1868       H  0.30274832  0.30020577  0.34742088     0.10800
H1869       H  0.26988463  0.28197792  0.38118120     0.16200
H1870       H  0.27898932  0.27344204  0.47722065     0.12100
H1871       H  0.39050068  0.33012396  0.45874058     0.15000
H1872       H  0.38061300  0.33731607  0.36238052     0.14800
C1873       C  0.48938592  0.36021010  0.89508233    -0.18100
C1874       C  0.50607334  0.38005361  0.90856949    -0.20300
C1875       C  0.51817254  0.39945521  0.89082207     0.20400
C1876       C  0.51382029  0.39857826  0.85894813    -0.03200
C1877       C  0.49712292  0.37852290  0.84530643    -0.06300
C1878       C  0.48455220  0.35938614  0.86358289     0.20600
C1879       C  0.49244945  0.37789632  0.81359241     0.18800
C1880       C  0.50489606  0.39710103  0.79567288    -0.17800
C1881       C  0.52129939  0.41697929  0.80919683    -0.20000
C1882       C  0.52561197  0.41794387  0.84082849     0.20300
C1883       C  0.54103683  0.43813844  0.85473866    -0.33000
C1884       C  0.54505109  0.43940306  0.88657017     0.01000
C1885       C  0.53400064  0.41986848  0.90443790    -0.24300
C1886       C  0.46674713  0.34011011  0.85031190    -0.28900
C1887       C  0.46124582  0.33973356  0.81900166     0.06700
C1888       C  0.47474747  0.35844264  0.80059553    -0.27600
H1889       H  0.47993724  0.34562090  0.90943169     0.11400
H1890       H  0.50917991  0.38034787  0.93301445     0.12500
H1891       H  0.50156411  0.39690516  0.77131052     0.11600
H1892       H  0.53033118  0.43173290  0.79499407     0.10800
H1893       H  0.54970707  0.45308703  0.84076421     0.16200
H1894       H  0.53697929  0.42076707  0.92898865     0.12100
H1895       H  0.45659847  0.32570731  0.86468519     0.15000
H1896       H  0.47069217  0.35836832  0.77651008     0.14800
C1897       C  0.47094697  0.51070112  0.96705871    -0.18100
C1898       C  0.48862355  0.51155034  0.95053794    -0.20300
C1899       C  0.50471860  0.50827256  0.96545364     0.20400
C1900       C  0.50287572  0.50404152  0.99739579    -0.03200
C1901       C  0.48499883  0.50312962  0.01406908    -0.06300
C1902       C  0.46902882  0.50654309  0.99879460     0.20600
C1903       C  0.48311980  0.49879888  0.04598733     0.18800
C1904       C  0.49922550  0.49557674  0.06092703    -0.17800
C1905       C  0.51691263  0.49646656  0.04442591    -0.20000
C1906       C  0.51881084  0.50058205  0.01268026     0.20300
C1907       C  0.53620589  0.50097672  0.99593021    -0.33000
C1908       C  0.53805360  0.50481459  0.96398761     0.01000
C1909       C  0.52240630  0.50881148  0.94897032    -0.24300
C1910       C  0.45150732  0.50589886  0.01553356    -0.28900
C1911       C  0.44955019  0.50174266  0.04740086     0.06700
C1912       C  0.46530566  0.49795704  0.06241971    -0.27600
H1913       H  0.45876288  0.51331290  0.95499281     0.11400
H1914       H  0.48967794  0.51472999  0.92606067     0.12500
H1915       H  0.49813142  0.49233465  0.08539079     0.11600
H1916       H  0.52907328  0.49382199  0.05649465     0.10800
H1917       H  0.54827156  0.49807133  0.00781577     0.16200
H1918       H  0.52359965  0.51165432  0.92438998     0.12100
H1919       H  0.43934949  0.50868522  0.00368309     0.15000
H1920       H  0.46401980  0.49491924  0.08695892     0.14800
C1921       C  0.41179876  0.52809392  0.70076703    -0.18100
C1922       C  0.39191870  0.51194517  0.71451693    -0.20300
C1923       C  0.37172860  0.50214834  0.69804122     0.20400
C1924       C  0.37146890  0.50928052  0.66771655    -0.03200
C1925       C  0.39155962  0.52578952  0.65390048    -0.06300
C1926       C  0.41183974  0.53486321  0.67034855     0.20600
C1927       C  0.39146465  0.53264303  0.62334604     0.18800
C1928       C  0.37111367  0.52330708  0.60723420    -0.17800
C1929       C  0.35126137  0.50676066  0.62078273    -0.20000
C1930       C  0.35132343  0.49932540  0.65080511     0.20300
C1931       C  0.33185533  0.48151445  0.66374405    -0.33000
C1932       C  0.33219588  0.47367328  0.69354772     0.01000
C1933       C  0.35204979  0.48467723  0.71089961    -0.24300
C1934       C  0.43191787  0.55004284  0.65587441    -0.28900
C1935       C  0.43221968  0.55648746  0.62504506     0.06700
C1936       C  0.41177085  0.54812655  0.60918654    -0.27600
H1937       H  0.42723738  0.53500178  0.71377077     0.11400
H1938       H  0.39243844  0.50671497  0.73781725     0.12500
H1939       H  0.37062583  0.52841372  0.58385447     0.11600
H1940       H  0.33591528  0.49944860  0.60752182     0.10800
H1941       H  0.31660700  0.47327447  0.65025234     0.16200
H1942       H  0.35255766  0.47873386  0.73376569     0.12100
H1943       H  0.44745610  0.55656070  0.66858380     0.15000
H1944       H  0.41173263  0.55296214  0.58551778     0.14800
C1945       C  0.52751759  0.71518336  0.73743436    -0.18100
C1946       C  0.52388055  0.69525551  0.72393892    -0.20300
C1947       C  0.52977079  0.69487070  0.69321004     0.20400
C1948       C  0.53926466  0.71477421  0.67586983    -0.03200
C1949       C  0.54323303  0.73498034  0.68964179    -0.06300
C1950       C  0.53731363  0.73519807  0.72057941     0.20600
C1951       C  0.55341373  0.75500057  0.67255634     0.18800
C1952       C  0.55915270  0.75461182  0.64177777    -0.17800
C1953       C  0.55502404  0.73460667  0.62808282    -0.20000
C1954       C  0.54520330  0.71460545  0.64493991     0.20300
C1955       C  0.54182165  0.69462259  0.63164537    -0.33000
C1956       C  0.53309043  0.67481611  0.64903347     0.01000
C1957       C  0.52686383  0.67509596  0.67977392    -0.24300
C1958       C  0.54157191  0.75543997  0.73419557    -0.28900
C1959       C  0.55214633  0.77560376  0.71746752     0.06700
C1960       C  0.55791340  0.77510823  0.68657673    -0.27600
H1961       H  0.52288424  0.71498026  0.76120493     0.11400
H1962       H  0.51657015  0.68014109  0.73763464     0.12500
H1963       H  0.56696409  0.76983638  0.62830289     0.11600
H1964       H  0.55977220  0.73483897  0.60436124     0.10800
H1965       H  0.54700866  0.69476979  0.60816338     0.16200
H1966       H  0.52019814  0.66001151  0.69348564     0.12100
H1967       H  0.53715160  0.75558547  0.75799579     0.15000
H1968       H  0.56590720  0.79044287  0.67331477     0.14800
C1969       C  0.47673751  0.51686331  0.46763706    -0.18100
C1970       C  0.47718038  0.49948021  0.45194109    -0.20300
C1971       C  0.48576710  0.48719944  0.46614449     0.20400
C1972       C  0.49389236  0.49248943  0.49659247    -0.03200
C1973       C  0.49347045  0.51008285  0.51245391    -0.06300
C1974       C  0.48490148  0.52233984  0.49783786     0.20600
C1975       C  0.50172754  0.51546798  0.54282748     0.18800
C1976       C  0.51009139  0.50303008  0.55716177    -0.17800
C1977       C  0.51052315  0.48563650  0.54146679    -0.20000
C1978       C  0.50256881  0.48031259  0.51114306     0.20300
C1979       C  0.50327844  0.46312184  0.49510616    -0.33000
C1980       C  0.49537244  0.45774284  0.46458130     0.01000
C1981       C  0.48650371  0.46986067  0.45037477    -0.24300
C1982       C  0.48472292  0.53992046  0.51356126    -0.28900
C1983       C  0.49312456  0.54564560  0.54378407     0.06700
C1984       C  0.50155898  0.53321791  0.55825780    -0.27600
H1985       H  0.47007215  0.52610076  0.45607521     0.11400
H1986       H  0.47085911  0.49568829  0.42861439     0.12500
H1987       H  0.51641255  0.50682593  0.58049006     0.11600
H1988       H  0.51718362  0.47639491  0.55303063     0.10800
H1989       H  0.51009807  0.45395605  0.50649859     0.16200
H1990       H  0.48043083  0.46601007  0.42692766     0.12100
H1991       H  0.47816208  0.54928112  0.50206101     0.15000
H1992       H  0.50789743  0.53727031  0.58156981     0.14800
C1993       C  0.52051274  0.54951310  0.80205095    -0.18100
C1994       C  0.51370182  0.55876145  0.77884270    -0.20300
C1995       C  0.51723852  0.55595930  0.74788577     0.20400
C1996       C  0.52654564  0.54260944  0.74015050    -0.03200
C1997       C  0.53401948  0.53382229  0.76359448    -0.06300
C1998       C  0.53136481  0.53769587  0.79467820     0.20600
C1999       C  0.54550590  0.52252684  0.75592063     0.18800
C2000       C  0.54759121  0.51835486  0.72493831    -0.17800
C2001       C  0.53959210  0.52650057  0.70169313    -0.20000
C2002       C  0.52977312  0.53931846  0.70904658     0.20300
C2003       C  0.52451398  0.55013563  0.68600178    -0.33000
C2004       C  0.51718271  0.56503278  0.69383607     0.01000
C2005       C  0.51293728  0.56736927  0.72467442    -0.24300
C2006       C  0.54099163  0.53111023  0.81775425    -0.28900
C2007       C  0.55428519  0.52189490  0.81006803     0.06700
C2008       C  0.55591472  0.51695114  0.77923789    -0.27600
H2009       H  0.51823854  0.55251196  0.82580589     0.11400
H2010       H  0.50631369  0.56871127  0.78514562     0.12500
H2011       H  0.55605922  0.50942500  0.71864597     0.11600
H2012       H  0.54203213  0.52366136  0.67793735     0.10800
H2013       H  0.52788985  0.54844894  0.66217005     0.16200
H2014       H  0.50713171  0.57875279  0.73062816     0.12100
H2015       H  0.53985731  0.53502561  0.84154093     0.15000
H2016       H  0.56605457  0.50967924  0.77337130     0.14800
C2017       C  0.55745188  0.71059713  0.42583315    -0.18100
C2018       C  0.55215641  0.70097468  0.45512869    -0.20300
C2019       C  0.54156934  0.67769589  0.45873687     0.20400
C2020       C  0.53641824  0.66402198  0.43240116    -0.03200
C2021       C  0.54198266  0.67378461  0.40273861    -0.06300
C2022       C  0.55238063  0.69715513  0.39953218     0.20600
C2023       C  0.53695071  0.66017679  0.37634416     0.18800
C2024       C  0.52643695  0.63688568  0.38000518    -0.17800
C2025       C  0.52073427  0.62720719  0.40932722    -0.20000
C2026       C  0.52554808  0.64061000  0.43566688     0.20300
C2027       C  0.51956311  0.63101897  0.46515037    -0.33000
C2028       C  0.52463090  0.64449457  0.49165835     0.01000
C2029       C  0.53589214  0.66788625  0.48815525    -0.24300
C2030       C  0.55729478  0.70673286  0.37011714    -0.28900
C2031       C  0.55210010  0.69341753  0.34345028     0.06700
C2032       C  0.54220615  0.67007428  0.34685336    -0.27600
H2033       H  0.56546200  0.72860590  0.42374428     0.11400
H2034       H  0.55621463  0.71176248  0.47498598     0.12500
H2035       H  0.52242623  0.62610862  0.36014570     0.11600
H2036       H  0.51246605  0.60918098  0.41139052     0.10800
H2037       H  0.51106243  0.61298733  0.46748244     0.16200
H2038       H  0.53979271  0.67842849  0.50826956     0.12100
H2039       H  0.56512569  0.72473592  0.36804088     0.15000
H2040       H  0.53808052  0.65960608  0.32662698     0.14800
C2041       C  0.48247275  0.62240476  0.10006305    -0.18100
C2042       C  0.50008960  0.64234279  0.11203705    -0.20300
C2043       C  0.50541396  0.64424343  0.14346515     0.20400
C2044       C  0.49254824  0.62599196  0.16310244    -0.03200
C2045       C  0.47493024  0.60575774  0.15094608    -0.06300
C2046       C  0.46994795  0.60390626  0.11922803     0.20600
C2047       C  0.46275338  0.58719594  0.17039852     0.18800
C2048       C  0.46771199  0.58924763  0.20192718    -0.17800
C2049       C  0.48495304  0.60934088  0.21400183    -0.20000
C2050       C  0.49767495  0.62771374  0.19474722     0.20300
C2051       C  0.51584565  0.64748489  0.20645591    -0.33000
C2052       C  0.52936507  0.66549602  0.18688826     0.01000
C2053       C  0.52374269  0.66381181  0.15542959    -0.24300
C2054       C  0.45306109  0.58340133  0.10711197    -0.28900
C2055       C  0.44157833  0.56453830  0.12616496     0.06700
C2056       C  0.44631026  0.56672241  0.15787320    -0.27600
H2057       H  0.47892253  0.62131883  0.07567270     0.11400
H2058       H  0.50974641  0.65620209  0.09661226     0.12500
H2059       H  0.45845315  0.57518840  0.21721319     0.11600
H2060       H  0.48862418  0.61036366  0.23835061     0.10800
H2061       H  0.52001812  0.64845326  0.23063560     0.16200
H2062       H  0.53393433  0.67754941  0.14007471     0.12100
H2063       H  0.44963524  0.58182023  0.08265113     0.15000
H2064       H  0.43743125  0.55231239  0.17274947     0.14800
C2065       C  0.52731841  0.82197831  0.23935601    -0.18100
C2066       C  0.52377385  0.83844834  0.22641787    -0.20300
C2067       C  0.52702991  0.84320974  0.19487169     0.20400
C2068       C  0.53360612  0.83102152  0.17608864    -0.03200
C2069       C  0.53746755  0.81459142  0.18922344    -0.06300
C2070       C  0.53436778  0.81007972  0.22104744     0.20600
C2071       C  0.54496361  0.80309590  0.17062997     0.18800
C2072       C  0.54791326  0.80760992  0.13901859    -0.17800
C2073       C  0.54385069  0.82368569  0.12597173    -0.20000
C2074       C  0.53692292  0.83566047  0.14433213     0.20300
C2075       C  0.53402188  0.85270084  0.13167632    -0.33000
C2076       C  0.52836948  0.86558770  0.15045816     0.01000
C2077       C  0.52451279  0.86040830  0.18198308    -0.24300
C2078       C  0.53894922  0.79421424  0.23409515    -0.28900
C2079       C  0.54718761  0.78329163  0.21583219     0.06700
C2080       C  0.54989688  0.78768163  0.18406108    -0.27600
H2081       H  0.52489202  0.81880308  0.26380458     0.11400
H2082       H  0.51871730  0.84765140  0.24118102     0.12500
H2083       H  0.55361306  0.79887334  0.12441488     0.11600
H2084       H  0.54651243  0.82703201  0.10157953     0.10800
H2085       H  0.53729843  0.85667703  0.10748604     0.16200
H2086       H  0.52015460  0.87020017  0.19671470     0.12100
H2087       H  0.53702646  0.79107661  0.25859955     0.15000
H2088       H  0.55613055  0.77924009  0.16978704     0.14800
C2089       C  0.64564231  0.84114801  0.38668258    -0.18100
C2090       C  0.62842773  0.82324370  0.37049218    -0.20300
C2091       C  0.63228824  0.81743469  0.34121976     0.20400
C2092       C  0.65365162  0.82985932  0.32802421    -0.03200
C2093       C  0.67103807  0.84796370  0.34437598    -0.06300
C2094       C  0.66704995  0.85358162  0.37391922     0.20600
C2095       C  0.69243111  0.86030315  0.33124766     0.18800
C2096       C  0.69623761  0.85465219  0.30184367    -0.17800
C2097       C  0.67902912  0.83674146  0.28566401    -0.20000
C2098       C  0.65768272  0.82415369  0.29856856     0.20300
C2099       C  0.64032058  0.80603176  0.28252403    -0.33000
C2100       C  0.61888515  0.79355329  0.29547467     0.01000
C2101       C  0.61512866  0.79944231  0.32494242    -0.24300
C2102       C  0.68457749  0.87129862  0.39032606    -0.28900
C2103       C  0.70612896  0.88340655  0.37765570     0.06700
C2104       C  0.70973971  0.87789217  0.34786425    -0.27600
H2105       H  0.64223069  0.84519380  0.40928262     0.11400
H2106       H  0.61207648  0.81388021  0.38093139     0.12500
H2107       H  0.71259112  0.86401688  0.29140862     0.11600
H2108       H  0.68244622  0.83268989  0.26307116     0.10800
H2109       H  0.64345580  0.80180423  0.25986266     0.16200
H2110       H  0.59875498  0.79003935  0.33532909     0.12100
H2111       H  0.68152925  0.87535359  0.41314833     0.15000
H2112       H  0.72616719  0.88714530  0.33758980     0.14800
C2113       C  0.76986189  0.91905187  0.03343987    -0.18100
C2114       C  0.77216080  0.93849817  0.04665566    -0.20300
C2115       C  0.78085880  0.95832466  0.02955448     0.20400
C2116       C  0.78773836  0.95863042  0.99898366    -0.03200
C2117       C  0.78557097  0.93898786  0.98567842    -0.06300
C2118       C  0.77631442  0.91908104  0.00290763     0.20600
C2119       C  0.79206547  0.93911445  0.95491947     0.18800
C2120       C  0.80105129  0.95906388  0.93800136    -0.17800
C2121       C  0.80301810  0.97845675  0.95107990    -0.20000
C2122       C  0.79615403  0.97835041  0.98141497     0.20300
C2123       C  0.79688412  0.99736401  0.99414033    -0.33000
C2124       C  0.78951382  0.99704628  0.02437668     0.01000
C2125       C  0.78206543  0.97758041  0.04215349    -0.24300
C2126       C  0.77302261  0.89936515  0.98909323    -0.28900
C2127       C  0.77873190  0.89900869  0.95808622     0.06700
C2128       C  0.78878920  0.91916859  0.94137059    -0.27600
H2129       H  0.76272450  0.90387453  0.04699581     0.11400
H2130       H  0.76675648  0.93791633  0.07011307     0.12500
H2131       H  0.80618423  0.95957137  0.91441794     0.11600
H2132       H  0.80961574  0.99348002  0.93727279     0.10800
H2133       H  0.80269098  0.01226394  0.98023167     0.16200
H2134       H  0.77611658  0.97702591  0.06529697     0.12100
H2135       H  0.76542660  0.88405609  0.00242042     0.15000
H2136       H  0.79314197  0.91914240  0.91751157     0.14800
C2137       C  0.68600558  0.65199701  0.96693869    -0.18100
C2138       C  0.69762633  0.67518801  0.97117702    -0.20300
C2139       C  0.70235235  0.68965007  0.94608853     0.20400
C2140       C  0.69570385  0.68074423  0.91635840    -0.03200
C2141       C  0.68400768  0.65729181  0.91207127    -0.06300
C2142       C  0.67893206  0.64283224  0.93752871     0.20600
C2143       C  0.67700851  0.64833568  0.88242830     0.18800
C2144       C  0.68199279  0.66282994  0.85728821    -0.17800
C2145       C  0.69351955  0.68604812  0.86155183    -0.20000
C2146       C  0.70032793  0.69522715  0.89102546     0.20300
C2147       C  0.71115752  0.71853651  0.89572446    -0.33000
C2148       C  0.71726248  0.72750568  0.92551278     0.01000
C2149       C  0.71313801  0.71283240  0.95040676    -0.24300
C2150       C  0.66645407  0.61950709  0.93327010    -0.28900
C2151       C  0.65892039  0.61038198  0.90384024     0.06700
C2152       C  0.66469920  0.62505503  0.87849440    -0.27600
H2153       H  0.68232659  0.64121858  0.98674183     0.11400
H2154       H  0.70266531  0.68181648  0.99419024     0.12500
H2155       H  0.67672147  0.65619243  0.83432446     0.11600
H2156       H  0.69689031  0.69681926  0.84181507     0.10800
H2157       H  0.71415206  0.72957065  0.87640391     0.16200
H2158       H  0.71788000  0.71940086  0.97350754     0.12100
H2159       H  0.66217885  0.60851472  0.95295371     0.15000
H2160       H  0.65909857  0.61842101  0.85559669     0.14800
C2161       C  0.68482633  0.80764087  0.13645569    -0.18100
C2162       C  0.70105139  0.81506272  0.11347901    -0.20300
C2163       C  0.69477808  0.81234247  0.08240604     0.20400
C2164       C  0.67200165  0.80280707  0.07438728    -0.03200
C2165       C  0.65560731  0.79469288  0.09751394    -0.06300
C2166       C  0.66206913  0.79698668  0.12868841     0.20600
C2167       C  0.63273587  0.78322820  0.08937456     0.18800
C2168       C  0.62650238  0.78126238  0.05834979    -0.17800
C2169       C  0.64277681  0.78992700  0.03545002    -0.20000
C2170       C  0.66550168  0.80023565  0.04320920     0.20300
C2171       C  0.68171170  0.80671452  0.02032302    -0.33000
C2172       C  0.70405661  0.81445786  0.02824500     0.01000
C2173       C  0.71066384  0.81778202  0.05920717    -0.24300
C2174       C  0.64563706  0.78749083  0.15142256    -0.28900
C2175       C  0.62298557  0.77479299  0.14322076     0.06700
C2176       C  0.61655679  0.77300342  0.11230803    -0.27600
H2177       H  0.69003311  0.80950581  0.16028515     0.11400
H2178       H  0.71846504  0.82247884  0.12000379     0.12500
H2179       H  0.60902797  0.77262497  0.05176356     0.11600
H2180       H  0.63755486  0.78780927  0.01161019     0.10800
H2181       H  0.67667460  0.80388906  0.99637082     0.16200
H2182       H  0.72797194  0.82374311  0.06517082     0.12100
H2183       H  0.65051407  0.78848119  0.17532764     0.15000
H2184       H  0.59902930  0.76307500  0.10612931     0.14800
C2185       C  0.63205185  0.82652006  0.87722911    -0.18100
C2186       C  0.64948169  0.82580449  0.89246544    -0.20300
C2187       C  0.67023801  0.83383591  0.87813548     0.20400
C2188       C  0.67363983  0.84331432  0.84850453    -0.03200
C2189       C  0.65605032  0.84406698  0.83313281    -0.06300
C2190       C  0.63506698  0.83527289  0.84739159     0.20600
C2191       C  0.65930171  0.85308522  0.80322134     0.18800
C2192       C  0.68031470  0.86188991  0.78935807    -0.17800
C2193       C  0.69773832  0.86116563  0.80458941    -0.20000
C2194       C  0.69446190  0.85163406  0.83395637     0.20300
C2195       C  0.71158175  0.85007231  0.84883583    -0.33000
C2196       C  0.70828058  0.84025970  0.87817486     0.01000
C2197       C  0.68754609  0.83234757  0.89276427    -0.24300
C2198       C  0.61726923  0.83474296  0.83125010    -0.28900
C2199       C  0.62002703  0.84274847  0.80086052     0.06700
C2200       C  0.64132294  0.85250047  0.78735029    -0.27600
H2201       H  0.61606973  0.81985334  0.88859123     0.11400
H2202       H  0.64661615  0.81866105  0.91529875     0.12500
H2203       H  0.68317051  0.86899717  0.76650314     0.11600
H2204       H  0.71370599  0.86778753  0.79320051     0.10800
H2205       H  0.72749564  0.85643596  0.83736844     0.16200
H2206       H  0.68485768  0.82505270  0.91549714     0.12100
H2207       H  0.60106767  0.82753147  0.84216257     0.15000
H2208       H  0.64373074  0.85888360  0.76408840     0.14800
C2209       C  0.76441184  0.81302020  0.74280745    -0.18100
C2210       C  0.76816840  0.80720836  0.71357718    -0.20300
C2211       C  0.77812779  0.79405570  0.71022821     0.20400
C2212       C  0.78383282  0.78622273  0.73676663    -0.03200
C2213       C  0.77972881  0.79184177  0.76638378    -0.06300
C2214       C  0.77032251  0.80561723  0.76933548     0.20600
C2215       C  0.78539449  0.78402741  0.79296748     0.18800
C2216       C  0.79492326  0.77045423  0.78958647    -0.17800
C2217       C  0.79931185  0.76519037  0.76029760    -0.20000
C2218       C  0.79406180  0.77319634  0.73373363     0.20300
C2219       C  0.79931322  0.76885849  0.70426749    -0.33000
C2220       C  0.79416513  0.77705019  0.67759718     0.01000
C2221       C  0.78300663  0.78913985  0.68086270    -0.24300
C2222       C  0.76722330  0.81201433  0.79868386    -0.28900
C2223       C  0.77302194  0.80460008  0.82547827     0.06700
C2224       C  0.78176108  0.79021963  0.82234268    -0.27600
H2225       H  0.75703067  0.82349973  0.74465524     0.11400
H2226       H  0.76362326  0.81334773  0.69354304     0.12500
H2227       H  0.79932534  0.76419101  0.80962540     0.11600
H2228       H  0.80703680  0.75502180  0.75843691     0.10800
H2229       H  0.80764850  0.75926861  0.70210321     0.16200
H2230       H  0.77896310  0.79552766  0.66060647     0.12100
H2231       H  0.76017614  0.82279199  0.80063994     0.15000
H2232       H  0.78623531  0.78430341  0.84268947     0.14800
C2233       C  0.76553659  0.85773479  0.53248588    -0.18100
C2234       C  0.76863925  0.84088060  0.54498993    -0.20300
C2235       C  0.77863123  0.83127271  0.52763511     0.20400
C2236       C  0.78591354  0.83903422  0.49750781    -0.03200
C2237       C  0.78301214  0.85628361  0.48497716    -0.06300
C2238       C  0.77252012  0.86543882  0.50245735     0.20600
C2239       C  0.79016296  0.86401082  0.45478634     0.18800
C2240       C  0.80031107  0.85449018  0.43753685    -0.17800
C2241       C  0.80291092  0.83720933  0.44978769    -0.20000
C2242       C  0.79560099  0.82921658  0.47965614     0.20300
C2243       C  0.79727713  0.81123619  0.49169476    -0.33000
C2244       C  0.78970656  0.80311370  0.52159502     0.01000
C2245       C  0.78085618  0.81362668  0.53959473    -0.24300
C2246       C  0.76875396  0.88179962  0.48945669    -0.28900
C2247       C  0.77543878  0.88941901  0.45915281     0.06700
C2248       C  0.78655498  0.88069657  0.44216949    -0.27600
H2249       H  0.75747101  0.86461453  0.54624310     0.11400
H2250       H  0.76289976  0.83511602  0.56811668     0.12500
H2251       H  0.80593315  0.86016970  0.41434932     0.11600
H2252       H  0.81046077  0.82993727  0.43575220     0.10800
H2253       H  0.80413082  0.80330299  0.47758460     0.16200
H2254       H  0.77471953  0.80738826  0.56245279     0.12100
H2255       H  0.76032251  0.88843941  0.50293578     0.15000
H2256       H  0.79168290  0.88629877  0.41880823     0.14800
C2257       C  0.65508458  0.69938714  0.63818892    -0.18100
C2258       C  0.67820075  0.70985429  0.63403405    -0.20300
C2259       C  0.68712774  0.71198001  0.60456841     0.20400
C2260       C  0.67253207  0.70375138  0.57898052    -0.03200
C2261       C  0.64915218  0.69309136  0.58318438    -0.06300
C2262       C  0.64045915  0.69077142  0.61296312     0.20600
C2263       C  0.63449501  0.68429972  0.55772008     0.18800
C2264       C  0.64345591  0.68679841  0.52818038    -0.17800
C2265       C  0.66661351  0.69745621  0.52399159    -0.20000
C2266       C  0.68124926  0.70577181  0.54927528     0.20300
C2267       C  0.70441344  0.71573812  0.54538875    -0.33000
C2268       C  0.71919536  0.72365879  0.57081568     0.01000
C2269       C  0.71032947  0.72186447  0.60034388    -0.24300
C2270       C  0.61728628  0.67922305  0.61721245    -0.28900
C2271       C  0.60240973  0.66937846  0.59222475     0.06700
C2272       C  0.61119894  0.67253838  0.56236932    -0.27600
H2273       H  0.64861927  0.69771280  0.66124379     0.11400
H2274       H  0.68909152  0.71608538  0.65393387     0.12500
H2275       H  0.63254465  0.68023983  0.50833817     0.11600
H2276       H  0.67307264  0.69893581  0.50097025     0.10800
H2277       H  0.71085569  0.71697481  0.52240238     0.16200
H2278       H  0.72141637  0.72786696  0.62007394     0.12100
H2279       H  0.61088399  0.67719070  0.64037148     0.15000
H2280       H  0.60000877  0.66510784  0.54294674     0.14800
C2281       C  0.61964756  0.52308515  0.09448740    -0.18100
C2282       C  0.62946567  0.52807525  0.12374887    -0.20300
C2283       C  0.65274805  0.54115013  0.12712608     0.20400
C2284       C  0.66621356  0.54920158  0.10057224    -0.03200
C2285       C  0.65627379  0.54433878  0.07099072    -0.06300
C2286       C  0.63290216  0.53118496  0.06801169     0.20600
C2287       C  0.66972392  0.55257190  0.04444610     0.18800
C2288       C  0.69301882  0.56543544  0.04782123    -0.17800
C2289       C  0.70286838  0.57005942  0.07705695    -0.20000
C2290       C  0.68961993  0.56203412  0.10353328     0.20300
C2291       C  0.69941382  0.56651015  0.13287266    -0.33000
C2292       C  0.68620920  0.55862482  0.15958096     0.01000
C2293       C  0.66280699  0.54613077  0.15648962    -0.24300
C2294       C  0.62315619  0.52625896  0.03864249    -0.28900
C2295       C  0.63633584  0.53436189  0.01186409     0.06700
C2296       C  0.65968003  0.54768024  0.01506493    -0.27600
H2297       H  0.60163684  0.51289163  0.09256684     0.11400
H2298       H  0.61883260  0.52163012  0.14375152     0.12500
H2299       H  0.70365420  0.57186213  0.02781959     0.11600
H2300       H  0.72090077  0.57994766  0.07895786     0.10800
H2301       H  0.71745829  0.57626182  0.13491501     0.16200
H2302       H  0.65250181  0.53982116  0.17682582     0.12100
H2303       H  0.60513957  0.51604201  0.03671823     0.15000
H2304       H  0.67002726  0.55390681  0.99476007     0.14800
C2305       C  0.60114651  0.49497374  0.29395652    -0.18100
C2306       C  0.58161191  0.47782167  0.30729814    -0.20300
C2307       C  0.58070333  0.47357053  0.33897327     0.20400
C2308       C  0.59972242  0.48660399  0.35735481    -0.03200
C2309       C  0.61941169  0.50407104  0.34390054    -0.06300
C2310       C  0.62014091  0.50826977  0.31203683     0.20600
C2311       C  0.63822588  0.51752096  0.36242236     0.18800
C2312       C  0.63731580  0.51325598  0.39408392    -0.17800
C2313       C  0.61791605  0.49584558  0.40734004    -0.20000
C2314       C  0.59896324  0.48244540  0.38925016     0.20300
C2315       C  0.57912965  0.46537018  0.40259173    -0.33000
C2316       C  0.55984888  0.45277523  0.38455855     0.01000
C2317       C  0.56095451  0.45686254  0.35266462    -0.24300
C2318       C  0.63968314  0.52588907  0.29892470    -0.28900
C2319       C  0.65845340  0.53963795  0.31733008     0.06700
C2320       C  0.65751222  0.53519314  0.34909220    -0.27600
H2321       H  0.60132747  0.49796160  0.26950276     0.11400
H2322       H  0.56713319  0.46796511  0.29284140     0.12500
H2323       H  0.65161268  0.52346552  0.40866387     0.11600
H2324       H  0.61766542  0.49301523  0.43184506     0.10800
H2325       H  0.57841742  0.46253394  0.42714946     0.16200
H2326       H  0.54624621  0.44720507  0.33848330     0.12100
H2327       H  0.64002248  0.52931426  0.27457544     0.15000
H2328       H  0.67177251  0.54566660  0.36360739     0.14800
C2329       C  0.81092098  0.70819756  0.38998701    -0.18100
C2330       C  0.80361953  0.69182168  0.36709630    -0.20300
C2331       C  0.79186783  0.66905003  0.37487483     0.20400
C2332       C  0.78832404  0.66270023  0.40608974    -0.03200
C2333       C  0.79624408  0.67922419  0.42919687    -0.06300
C2334       C  0.80694698  0.70206497  0.42104131     0.20600
C2335       C  0.79237939  0.67284871  0.46038103     0.18800
C2336       C  0.78097171  0.65009282  0.46819984    -0.17800
C2337       C  0.77255526  0.63372648  0.44527208    -0.20000
C2338       C  0.77581291  0.63986447  0.41418940     0.20300
C2339       C  0.76579608  0.62367283  0.39107999    -0.33000
C2340       C  0.76870249  0.62999726  0.36006098     0.01000
C2341       C  0.78247098  0.65255798  0.35201912    -0.24300
C2342       C  0.81240650  0.71823143  0.44397899    -0.28900
C2343       C  0.80794660  0.71182327  0.47489808     0.06700
C2344       C  0.79883196  0.68928619  0.48308982    -0.27600
H2345       H  0.81924463  0.72564960  0.38336341     0.11400
H2346       H  0.80646308  0.69696337  0.34324903     0.12500
H2347       H  0.77785460  0.64495248  0.49203608     0.11600
H2348       H  0.76308826  0.61627210  0.45184500     0.10800
H2349       H  0.75504039  0.60623953  0.39716864     0.16200
H2350       H  0.78433769  0.65740691  0.32803816     0.12100
H2351       H  0.81942023  0.73566973  0.43779023     0.15000
H2352       H  0.79512994  0.68439571  0.50698379     0.14800
C2353       C  0.63457716  0.65866738  0.30265545    -0.18100
C2354       C  0.64648694  0.64756238  0.30694035    -0.20300
C2355       C  0.65108728  0.63776758  0.28195819     0.20400
C2356       C  0.64345234  0.63890020  0.25241783    -0.03200
C2357       C  0.63136612  0.65010514  0.24809499    -0.06300
C2358       C  0.62700799  0.66012737  0.27333286     0.20600
C2359       C  0.62399257  0.65160138  0.21849869     0.18800
C2360       C  0.62844334  0.64160554  0.19357590    -0.17800
C2361       C  0.64040660  0.63047830  0.19788214    -0.20000
C2362       C  0.64817654  0.62915532  0.22718266     0.20300
C2363       C  0.66087704  0.61863917  0.23165108    -0.33000
C2364       C  0.66891533  0.61782167  0.26108873     0.01000
C2365       C  0.66354034  0.62720497  0.28607628    -0.24300
C2366       C  0.61559365  0.67183581  0.26877232    -0.28900
C2367       C  0.60866702  0.67391611  0.23922354     0.06700
C2368       C  0.61270342  0.66344566  0.21426211    -0.27600
H2369       H  0.63144501  0.66627641  0.32226086     0.11400
H2370       H  0.65229718  0.64681755  0.32980608     0.12500
H2371       H  0.62285137  0.64257974  0.17066001     0.11600
H2372       H  0.64377014  0.62309684  0.17822377     0.10800
H2373       H  0.66479470  0.61148607  0.21224333     0.16200
H2374       H  0.66937655  0.62668725  0.30901859     0.12100
H2375       H  0.61279223  0.67996297  0.28806109     0.15000
H2376       H  0.60741110  0.66483986  0.19131618     0.14800
C2377       C  0.79574274  0.54646511  0.36402046    -0.18100
C2378       C  0.81212521  0.54281490  0.37700577    -0.20300
C2379       C  0.82640870  0.53923780  0.35822990     0.20400
C2380       C  0.82330908  0.53810486  0.32606913    -0.03200
C2381       C  0.80652905  0.54149742  0.31293991    -0.06300
C2382       C  0.79316669  0.54637188  0.33201303     0.20600
C2383       C  0.80377733  0.54096230  0.28072719     0.18800
C2384       C  0.81739184  0.53632657  0.26204011    -0.17800
C2385       C  0.83419255  0.53326410  0.27501531    -0.20000
C2386       C  0.83760758  0.53460727  0.30696146     0.20300
C2387       C  0.85569134  0.53361158  0.31999892    -0.33000
C2388       C  0.85977630  0.53613474  0.35197817     0.01000
C2389       C  0.84440826  0.53796305  0.37097711    -0.24300
C2390       C  0.77804312  0.55185933  0.31876683    -0.28900
C2391       C  0.77567200  0.55211779  0.28664986     0.06700
C2392       C  0.78809919  0.54592313  0.26779361    -0.27600
H2393       H  0.78542462  0.54989725  0.37902832     0.11400
H2394       H  0.81410604  0.54353579  0.40174223     0.12500
H2395       H  0.81547682  0.53570442  0.23729739     0.11600
H2396       H  0.84488785  0.53039481  0.25997412     0.10800
H2397       H  0.86714915  0.53185289  0.30503624     0.16200
H2398       H  0.84717818  0.53974360  0.39557975     0.12100
H2399       H  0.76834555  0.55633867  0.33347461     0.15000
H2400       H  0.78641179  0.54610878  0.24305443     0.14800
C2401       C  0.17863868  0.75294138  0.14014521    -0.18100
C2402       C  0.16195506  0.73310778  0.12683310    -0.20300
C2403       C  0.15202838  0.71308513  0.14359243     0.20400
C2404       C  0.15901349  0.71305080  0.17409911    -0.03200
C2405       C  0.17602708  0.73306966  0.18747216    -0.06300
C2406       C  0.18575188  0.75307626  0.17040202     0.20600
C2407       C  0.18307440  0.73312672  0.21799134     0.18800
C2408       C  0.17292119  0.71311584  0.23484015    -0.17800
C2409       C  0.15587368  0.69332182  0.22170357    -0.20000
C2410       C  0.14878062  0.69311617  0.19137868     0.20300
C2411       C  0.13139139  0.67345155  0.17820323    -0.33000
C2412       C  0.12430054  0.67336546  0.14779238     0.01000
C2413       C  0.13493966  0.69322381  0.13055353    -0.24300
C2414       C  0.20216021  0.77298349  0.18398889    -0.28900
C2415       C  0.20917748  0.77336359  0.21450621     0.06700
C2416       C  0.19979737  0.75325568  0.23124855    -0.27600
H2417       H  0.18592141  0.76822089  0.12679661     0.11400
H2418       H  0.15669294  0.73346661  0.10347974     0.12500
H2419       H  0.17801541  0.71281151  0.25830390     0.11600
H2420       H  0.14817240  0.67816802  0.23532539     0.10800
H2421       H  0.12317895  0.65826014  0.19174338     0.16200
H2422       H  0.12929851  0.69344449  0.10736457     0.12100
H2423       H  0.20934797  0.78833540  0.17077314     0.15000
H2424       H  0.20494531  0.75340751  0.25482463     0.14800
C2425       C  0.95460171  0.52665241  0.22314877    -0.18100
C2426       C  0.97021624  0.53419314  0.19944339    -0.20300
C2427       C  0.99281458  0.54208206  0.20586081     0.20400
C2428       C  0.99961679  0.54118648  0.23618204    -0.03200
C2429       C  0.98374055  0.53310930  0.26004338    -0.06300
C2430       C  0.96131180  0.52660767  0.25355065     0.20600
C2431       C  0.99056558  0.53297157  0.29060819     0.18800
C2432       C  0.01304909  0.53991297  0.29673627    -0.17800
C2433       C  0.02889502  0.54838242  0.27314051    -0.20000
C2434       C  0.02245393  0.54974174  0.24296591     0.20300
C2435       C  0.03845093  0.56068987  0.21982927    -0.33000
C2436       C  0.03165203  0.56241274  0.19001203     0.01000
C2437       C  0.00887385  0.55219590  0.18284262    -0.24300
C2438       C  0.94631052  0.52164195  0.27771438    -0.28900
C2439       C  0.95333030  0.52294596  0.30829145     0.06700
C2440       C  0.97512693  0.52742994  0.31460331    -0.27600
H2441       H  0.93740160  0.52155687  0.21783067     0.11400
H2442       H  0.96476814  0.53474677  0.17626774     0.12500
H2443       H  0.01855877  0.53973410  0.31999872     0.11600
H2444       H  0.04629309  0.55455203  0.27868033     0.10800
H2445       H  0.05611519  0.56860013  0.22519360     0.16200
H2446       H  0.00377557  0.55376961  0.15982570     0.12100
H2447       H  0.92943733  0.51795606  0.27284042     0.15000
H2448       H  0.98058331  0.52850977  0.33822893     0.14800
C2449       C  0.84006393  0.80236001  0.07042153    -0.18100
C2450       C  0.82265239  0.80443378  0.05765436    -0.20300
C2451       C  0.81854877  0.80200191  0.02589417     0.20400
C2452       C  0.83248487  0.79805511  0.00667504    -0.03200
C2453       C  0.84996787  0.79580612  0.01958547    -0.06300
C2454       C  0.85362640  0.79773083  0.05166777     0.20600
C2455       C  0.86324516  0.79082875  0.00050602     0.18800
C2456       C  0.85957600  0.78907749  0.96864750    -0.17800
C2457       C  0.84237682  0.79148238  0.95584451    -0.20000
C2458       C  0.82848124  0.79557383  0.97469435     0.20300
C2459       C  0.81017727  0.79638624  0.96227816    -0.33000
C2460       C  0.79558115  0.79928140  0.98149396     0.01000
C2461       C  0.80027812  0.80265290  0.01319968    -0.24300
C2462       C  0.87018643  0.79413741  0.06450554    -0.28900
C2463       C  0.88264899  0.78801776  0.04572499     0.06700
C2464       C  0.87939057  0.78686358  0.01370846    -0.27600
H2465       H  0.84261375  0.80389962  0.09506147     0.11400
H2466       H  0.81212296  0.80753164  0.07271606     0.12500
H2467       H  0.86973548  0.78540172  0.95367222     0.11600
H2468       H  0.83961775  0.78962281  0.93125314     0.10800
H2469       H  0.80675757  0.79377616  0.93785770     0.16200
H2470       H  0.78929913  0.80510945  0.02824573     0.12100
H2471       H  0.87252855  0.79488653  0.08919548     0.15000
H2472       H  0.88908902  0.78230861  0.99911953     0.14800
C2473       C  0.02006943  0.83720856  0.94636559    -0.18100
C2474       C  0.03994929  0.85407958  0.93334669    -0.20300
C2475       C  0.05995950  0.86403706  0.95028705     0.20400
C2476       C  0.05973924  0.85714591  0.98092696    -0.03200
C2477       C  0.03963898  0.84026203  0.99416031    -0.06300
C2478       C  0.01978372  0.83002304  0.97662571     0.20600
C2479       C  0.03956178  0.83323334  0.02465547     0.18800
C2480       C  0.05948924  0.84326627  0.04172640    -0.17800
C2481       C  0.07939465  0.85982950  0.02856435    -0.20000
C2482       C  0.07969640  0.86674731  0.99816035     0.20300
C2483       C  0.09973159  0.88276400  0.98454999    -0.33000
C2484       C  0.10032888  0.88952190  0.95381827     0.01000
C2485       C  0.08024352  0.88034085  0.93696600    -0.24300
C2486       C  0.00019371  0.81231609  0.98931136    -0.28900
C2487       C  0.00013054  0.80479964  0.01941841     0.06700
C2488       C  0.01976478  0.81578643  0.03720235    -0.27600
H2489       H  0.00495171  0.82956625  0.93259717     0.11400
H2490       H  0.03973079  0.85910784  0.90984026     0.12500
H2491       H  0.05975774  0.83804697  0.06511554     0.11600
H2492       H  0.09462577  0.86707399  0.04208366     0.10800
H2493       H  0.11503897  0.88978736  0.99791103     0.16200
H2494       H  0.08052188  0.88526520  0.91326435     0.12100
H2495       H  0.98511727  0.80400058  0.97547467     0.15000
H2496       H  0.01995483  0.80999588  0.06028632     0.14800
C2497       C  0.81910683  0.68826016  0.20984863    -0.18100
C2498       C  0.83614936  0.70611409  0.19350167    -0.20300
C2499       C  0.84566077  0.70215446  0.16762058     0.20400
C2500       C  0.83784467  0.67999483  0.15801713    -0.03200
C2501       C  0.82063981  0.66196104  0.17454439    -0.06300
C2502       C  0.81126497  0.66610754  0.20064311     0.20600
C2503       C  0.81286932  0.63980500  0.16496401     0.18800
C2504       C  0.82232500  0.63584781  0.13902676    -0.17800
C2505       C  0.83934552  0.65369228  0.12267521    -0.20000
C2506       C  0.84723364  0.67582949  0.13195139     0.20300
C2507       C  0.86436771  0.69382803  0.11567321    -0.33000
C2508       C  0.87240913  0.71601684  0.12518874     0.01000
C2509       C  0.86286883  0.71996220  0.15124498    -0.24300
C2510       C  0.79425193  0.64806185  0.21706397    -0.28900
C2511       C  0.78635183  0.62586194  0.20764439     0.06700
C2512       C  0.79580422  0.62197535  0.18146058    -0.27600
H2513       H  0.81208898  0.69178737  0.22975689     0.11400
H2514       H  0.84192702  0.72304549  0.20115480     0.12500
H2515       H  0.81655616  0.61891809  0.13137561     0.11600
H2516       H  0.84635877  0.65016574  0.10276046     0.10800
H2517       H  0.87155224  0.69052315  0.09574022     0.16200
H2518       H  0.86878498  0.73694242  0.15882865     0.12100
H2519       H  0.78707405  0.65132421  0.23704128     0.15000
H2520       H  0.78997164  0.60500175  0.17392151     0.14800
C2521       C  0.02340005  0.68273174  0.02922186    -0.18100
C2522       C  0.01189125  0.69430426  0.02534288    -0.20300
C2523       C  0.00761791  0.70415544  0.05058282     0.20400
C2524       C  0.01513849  0.70255511  0.07998318    -0.03200
C2525       C  0.02682260  0.69087566  0.08389432    -0.06300
C2526       C  0.03086133  0.68078967  0.05841227     0.20600
C2527       C  0.03409882  0.68896480  0.11334533     0.18800
C2528       C  0.02994962  0.69897973  0.13854049    -0.17800
C2529       C  0.01835059  0.71051676  0.13465931    -0.20000
C2530       C  0.01070532  0.71231475  0.10549570     0.20300
C2531       C  0.99849354  0.72340102  0.10142087    -0.33000
C2532       C  0.99075735  0.72490112  0.07205945     0.01000
C2533       C  0.99567722  0.71530820  0.04684095    -0.24300
C2534       C  0.04174878  0.66846929  0.06264733    -0.28900
C2535       C  0.04843925  0.66585765  0.09213495     0.06700
C2536       C  0.04490190  0.67661579  0.11723209    -0.27600
H2537       H  0.02627956  0.67511493  0.00940367     0.11400
H2538       H  0.00616011  0.69539594  0.00256993     0.12500
H2539       H  0.03546490  0.69767240  0.16136279     0.11600
H2540       H  0.01520709  0.71788217  0.15453467     0.10800
H2541       H  0.99482915  0.73058498  0.12103815     0.16200
H2542       H  0.98986464  0.71611037  0.02399753     0.12100
H2543       H  0.04424885  0.66025081  0.04320697     0.15000
H2544       H  0.05009908  0.67495929  0.14011852     0.14800
C2545       C  0.89085353  0.52441513  0.59294480    -0.18100
C2546       C  0.88562145  0.52887139  0.62212445    -0.20300
C2547       C  0.87400831  0.54045300  0.62533003     0.20400
C2548       C  0.86792143  0.54789320  0.59874213    -0.03200
C2549       C  0.87341678  0.54358527  0.56922451    -0.06300
C2550       C  0.88471218  0.53158245  0.56638308     0.20600
C2551       C  0.86736341  0.55103179  0.54260160     0.18800
C2552       C  0.85599289  0.56286253  0.54586020    -0.17800
C2553       C  0.85037300  0.56694690  0.57504647    -0.20000
C2554       C  0.85610975  0.55939201  0.60160215     0.20300
C2555       C  0.85002077  0.56292152  0.63090112    -0.33000
C2556       C  0.85578962  0.55537618  0.65761724     0.01000
C2557       C  0.86812487  0.54444515  0.65457814    -0.24300
C2558       C  0.88944595  0.52669024  0.53706714    -0.28900
C2559       C  0.88325592  0.53373189  0.51021762     0.06700
C2560       C  0.87248516  0.54623537  0.51326806    -0.27600
H2561       H  0.89961337  0.51522552  0.59114959     0.11400
H2562       H  0.89046250  0.52303984  0.64219800     0.12500
H2563       H  0.85122325  0.56876564  0.52579429     0.11600
H2564       H  0.84138973  0.57591417  0.57683360     0.10800
H2565       H  0.84078053  0.57162741  0.63288961     0.16200
H2566       H  0.87268391  0.53858250  0.67490504     0.12100
H2567       H  0.89795936  0.51725442  0.53520612     0.15000
H2568       H  0.86760580  0.55173493  0.49288330     0.14800
C2569       C  0.70296178  0.52875494  0.76716487    -0.18100
C2570       C  0.68318161  0.52576673  0.78021396    -0.20300
C2571       C  0.68258407  0.53104964  0.81120809     0.20400
C2572       C  0.70192616  0.53863188  0.82947818    -0.03200
C2573       C  0.72199999  0.54193418  0.81618607    -0.06300
C2574       C  0.72262309  0.53727520  0.78475579     0.20600
C2575       C  0.74162023  0.55065945  0.83411338     0.18800
C2576       C  0.74078487  0.55497888  0.86542648    -0.17800
C2577       C  0.72090038  0.55148879  0.87862895    -0.20000
C2578       C  0.70148280  0.54376022  0.86074295     0.20300
C2579       C  0.68198923  0.54204019  0.87325569    -0.33000
C2580       C  0.66301114  0.53583160  0.85476705     0.01000
C2581       C  0.66331724  0.52976937  0.82389756    -0.24300
C2582       C  0.74301692  0.54195070  0.77128003    -0.28900
C2583       C  0.76294587  0.55179477  0.78866688     0.06700
C2584       C  0.76188395  0.55560416  0.82026791    -0.27600
H2585       H  0.70301592  0.52493602  0.74306703     0.11400
H2586       H  0.66844746  0.51974591  0.76585807     0.12500
H2587       H  0.75565585  0.56150462  0.87960978     0.11600
H2588       H  0.72087741  0.55541525  0.90269116     0.10800
H2589       H  0.68207007  0.54679854  0.89697094     0.16200
H2590       H  0.64879819  0.52477139  0.80941107     0.12100
H2591       H  0.74354833  0.53885496  0.74700257     0.15000
H2592       H  0.77698862  0.56282449  0.83407972     0.14800
C2593       C  0.81452528  0.65497507  0.61345327    -0.18100
C2594       C  0.81383279  0.63713164  0.62958020    -0.20300
C2595       C  0.82133804  0.63984291  0.66014657     0.20400
C2596       C  0.82996707  0.66084955  0.67444433    -0.03200
C2597       C  0.83066115  0.67889860  0.65812710    -0.06300
C2598       C  0.82270714  0.67589077  0.62757025     0.20600
C2599       C  0.83908684  0.69985319  0.67250863     0.18800
C2600       C  0.84697348  0.70267312  0.70289164    -0.17800
C2601       C  0.84626751  0.68481784  0.71903205    -0.20000
C2602       C  0.83769605  0.66377695  0.70511368     0.20300
C2603       C  0.83655502  0.64561230  0.72137406    -0.33000
C2604       C  0.82763389  0.62443681  0.70744637     0.01000
C2605       C  0.82019277  0.62185818  0.67667025    -0.24300
C2606       C  0.82284365  0.69373062  0.61179372    -0.28900
C2607       C  0.83091793  0.71465998  0.62609917     0.06700
C2608       C  0.83925392  0.71754764  0.65643151    -0.27600
H2609       H  0.80846991  0.65234739  0.58998234     0.11400
H2610       H  0.80725752  0.62112619  0.61817959     0.12500
H2611       H  0.85355302  0.71868072  0.71428744     0.11600
H2612       H  0.85231884  0.68744534  0.74250441     0.10800
H2613       H  0.84233840  0.64790358  0.74497206     0.16200
H2614       H  0.81343098  0.60576468  0.66543673     0.12100
H2615       H  0.81660999  0.69128460  0.58841474     0.15000
H2616       H  0.84561215  0.73353496  0.66782323     0.14800
C2617       C  0.86554491  0.64817878  0.96833863    -0.18100
C2618       C  0.85800161  0.63167313  0.94562097    -0.20300
C2619       C  0.85787335  0.63722853  0.91465005     0.20400
C2620       C  0.86511087  0.65958647  0.90649278    -0.03200
C2621       C  0.87322232  0.67633539  0.92934102    -0.06300
C2622       C  0.87339972  0.67056644  0.96041046     0.20600
C2623       C  0.88190730  0.69893308  0.92096864     0.18800
C2624       C  0.88154708  0.70443682  0.89002700    -0.17800
C2625       C  0.87299284  0.68776154  0.86746849    -0.20000
C2626       C  0.86500135  0.66534272  0.87539808     0.20300
C2627       C  0.85780817  0.64874122  0.85268065    -0.33000
C2628       C  0.85167364  0.62671033  0.86057116     0.01000
C2629       C  0.85144837  0.62099617  0.89159172    -0.24300
C2630       C  0.88229025  0.68740363  0.98282408    -0.28900
C2631       C  0.89187420  0.70995267  0.97439330     0.06700
C2632       C  0.89154149  0.71566056  0.94353817    -0.27600
H2633       H  0.86570819  0.64350839  0.99205397     0.11400
H2634       H  0.85250466  0.61459049  0.95224418     0.12500
H2635       H  0.88811382  0.72168364  0.88322146     0.11600
H2636       H  0.87312336  0.69247742  0.84370386     0.10800
H2637       H  0.85839412  0.65324325  0.82870055     0.16200
H2638       H  0.84682859  0.60401700  0.89765579     0.12100
H2639       H  0.88311798  0.68312944  0.00657682     0.15000
H2640       H  0.89927488  0.73312731  0.93709422     0.14800
C2641       C  0.02784215  0.81731810  0.21107025    -0.18100
C2642       C  0.03731046  0.82213901  0.24055104    -0.20300
C2643       C  0.02399940  0.81205871  0.26653145     0.20400
C2644       C  0.00096644  0.79690691  0.26278849    -0.03200
C2645       C  0.99137796  0.79220711  0.23307394    -0.06300
C2646       C  0.00487330  0.80239754  0.20703262     0.20600
C2647       C  0.96823423  0.77746265  0.22949409     0.18800
C2648       C  0.95496517  0.76723005  0.25539950    -0.17800
C2649       C  0.96450009  0.77168075  0.28475039    -0.20000
C2650       C  0.98743470  0.78660976  0.28874840     0.20300
C2651       C  0.99695257  0.79166362  0.31828117    -0.33000
C2652       C  0.01980108  0.80716290  0.32233131     0.01000
C2653       C  0.03324573  0.81708660  0.29619893    -0.24300
C2654       C  0.99509150  0.79762785  0.17754282    -0.28900
C2655       C  0.97192328  0.78324775  0.17398931     0.06700
C2656       C  0.95868098  0.77328974  0.20011116    -0.27600
H2657       H  0.03846804  0.82537251  0.19143899     0.11400
H2658       H  0.05505270  0.83383391  0.24304014     0.12500
H2659       H  0.93716130  0.75580523  0.25296556     0.11600
H2660       H  0.95387299  0.76361259  0.30437680     0.10800
H2661       H  0.98646481  0.78386855  0.33812941     0.16200
H2662       H  0.05094693  0.82891867  0.29888870     0.12100
H2663       H  0.00533215  0.80552216  0.15752178     0.15000
H2664       H  0.94082551  0.76210661  0.19751552     0.14800
C2665       C  0.15053417  0.93980273  0.54448478    -0.18100
C2666       C  0.13372689  0.92011632  0.53103162    -0.20300
C2667       C  0.12766816  0.91989933  0.50019561     0.20400
C2668       C  0.13814814  0.93981593  0.48292709    -0.03200
C2669       C  0.15529159  0.95967592  0.49645097    -0.06300
C2670       C  0.16166883  0.95956625  0.52726973     0.20600
C2671       C  0.16661650  0.97937247  0.47881235     0.18800
C2672       C  0.16003333  0.97928123  0.44823133    -0.17800
C2673       C  0.14286735  0.95964580  0.43492043    -0.20000
C2674       C  0.13206525  0.93970469  0.45188278     0.20300
C2675       C  0.11589577  0.91951580  0.43812584    -0.33000
C2676       C  0.10617175  0.89941421  0.45491341     0.01000
C2677       C  0.11183662  0.89992737  0.48611439    -0.24300
C2678       C  0.17972983  0.97889097  0.53994136    -0.28900
C2679       C  0.19199765  0.99818508  0.52197681     0.06700
C2680       C  0.18491736  0.99848759  0.49165998    -0.27600
H2681       H  0.15520891  0.93942893  0.56815668     0.11400
H2682       H  0.12574815  0.90494006  0.54460241     0.12500
H2683       H  0.16847390  0.99429671  0.43439513     0.11600
H2684       H  0.13840484  0.95993779  0.41112240     0.10800
H2685       H  0.11166362  0.91927249  0.41408629     0.16200
H2686       H  0.10423661  0.88458681  0.49938172     0.12100
H2687       H  0.18506956  0.97843585  0.56323304     0.15000
H2688       H  0.19415545  0.01334129  0.47768421     0.14800
C2689       C  0.91309287  0.79134582  0.46909626    -0.18100
C2690       C  0.93258196  0.79427199  0.45525536    -0.20300
C2691       C  0.95158986  0.79971883  0.47305063     0.20400
C2692       C  0.95124428  0.80337767  0.50492208    -0.03200
C2693       C  0.93159789  0.80056039  0.51888870    -0.06300
C2694       C  0.91227944  0.79390957  0.50097426     0.20600
C2695       C  0.93097871  0.80334334  0.55096975     0.18800
C2696       C  0.95029656  0.80975822  0.56854076    -0.17800
C2697       C  0.96968872  0.81242378  0.55475288    -0.20000
C2698       C  0.97015280  0.80878545  0.52311386     0.20300
C2699       C  0.98877752  0.80934114  0.50970578    -0.33000
C2700       C  0.98879182  0.80428023  0.47832604     0.01000
C2701       C  0.97044783  0.80040094  0.45987897    -0.24300
C2702       C  0.89222654  0.78891073  0.51541650    -0.28900
C2703       C  0.89114080  0.79053111  0.54757841     0.06700
C2704       C  0.91080810  0.79860994  0.56507822    -0.27600
H2705       H  0.89843853  0.78644903  0.45496132     0.11400
H2706       H  0.93254431  0.79157017  0.43075566     0.12500
H2707       H  0.95021434  0.81207391  0.59312456     0.11600
H2708       H  0.98414709  0.81672377  0.56902149     0.10800
H2709       H  0.00291935  0.81272177  0.52414053     0.16200
H2710       H  0.97025772  0.79657759  0.43572016     0.12100
H2711       H  0.87718488  0.78296295  0.50169764     0.15000
H2712       H  0.91010440  0.79986318  0.58980783     0.14800
C2713       C  0.14880460  0.85941297  0.30448991    -0.18100
C2714       C  0.16626798  0.85932589  0.28874701    -0.20300
C2715       C  0.17647328  0.84789185  0.30076066     0.20400
C2716       C  0.16899344  0.83643695  0.32898161    -0.03200
C2717       C  0.15131929  0.83651825  0.34490886    -0.06300
C2718       C  0.14123960  0.84807841  0.33254081     0.20600
C2719       C  0.14374314  0.82504824  0.37311849     0.18800
C2720       C  0.15398499  0.81360314  0.38509340    -0.17800
C2721       C  0.17149797  0.81351359  0.36930532    -0.20000
C2722       C  0.17910495  0.82485920  0.34122770     0.20300
C2723       C  0.19652225  0.82470790  0.32509344    -0.33000
C2724       C  0.20400030  0.83594775  0.29673591     0.01000
C2725       C  0.19389946  0.84761035  0.28489895    -0.24300
C2726       C  0.12378721  0.84819330  0.34838366    -0.28900
C2727       C  0.11606327  0.83693230  0.37663974     0.06700
C2728       C  0.12613931  0.82529328  0.38881517    -0.27600
H2729       H  0.14119977  0.86836755  0.29469949     0.11400
H2730       H  0.17177013  0.86818454  0.26711889     0.12500
H2731       H  0.14844768  0.80470594  0.40668681     0.11600
H2732       H  0.17907577  0.80452109  0.37905039     0.10800
H2733       H  0.20413008  0.81566368  0.33458629     0.16200
H2734       H  0.19942278  0.85630539  0.26314704     0.12100
H2735       H  0.11622190  0.85717592  0.33854148     0.15000
H2736       H  0.12040444  0.81656163  0.41050602     0.14800
C2737       C  0.94564435  0.65314368  0.46587969    -0.18100
C2738       C  0.95621481  0.67640373  0.46959991    -0.20300
C2739       C  0.96815518  0.69089320  0.44530473     0.20400
C2740       C  0.96909166  0.68186373  0.41680986    -0.03200
C2741       C  0.95840538  0.65837233  0.41306327    -0.06300
C2742       C  0.94677280  0.64387737  0.43777716     0.20600
C2743       C  0.95972398  0.64944193  0.38471684     0.18800
C2744       C  0.97146089  0.66387703  0.36031315    -0.17800
C2745       C  0.98206896  0.68707334  0.36404418    -0.20000
C2746       C  0.98111306  0.69629084  0.39223270     0.20300
C2747       C  0.99252549  0.71963454  0.39650935    -0.33000
C2748       C  0.99238719  0.72880799  0.42521984     0.01000
C2749       C  0.97971472  0.71422141  0.44928697    -0.24300
C2750       C  0.93679447  0.62047873  0.43404520    -0.28900
C2751       C  0.93821671  0.61143265  0.40577130     0.06700
C2752       C  0.94960568  0.62624312  0.38125551    -0.27600
H2753       H  0.93677172  0.64240488  0.48511444     0.11400
H2754       H  0.95529254  0.68307647  0.49166402     0.12500
H2755       H  0.97262865  0.65721640  0.33836230     0.11600
H2756       H  0.99122907  0.69781401  0.34494615     0.10800
H2757       H  0.00234819  0.73059147  0.37793229     0.16200
H2758       H  0.97936298  0.72101600  0.47153567     0.12100
H2759       H  0.92813810  0.60940992  0.45310355     0.15000
H2760       H  0.95107580  0.61979089  0.35929069     0.14800
C2761       C  0.09909751  0.62704142  0.90786661    -0.18100
C2762       C  0.10311160  0.63640086  0.87836420    -0.20300
C2763       C  0.11250124  0.65954800  0.87443378     0.20400
C2764       C  0.11779427  0.67332531  0.90070380    -0.03200
C2765       C  0.11349589  0.66382685  0.93055273    -0.06300
C2766       C  0.10422076  0.64060155  0.93409144     0.20600
C2767       C  0.11859015  0.67758386  0.95680732     0.18800
C2768       C  0.12812331  0.70074646  0.95287937    -0.17800
C2769       C  0.13261700  0.71016614  0.92340752    -0.20000
C2770       C  0.12753481  0.69661449  0.89719706     0.20300
C2771       C  0.13226363  0.70600528  0.86760471    -0.33000
C2772       C  0.12720203  0.69250430  0.84113632     0.01000
C2773       C  0.11697331  0.66917683  0.84480721    -0.24300
C2774       C  0.10030132  0.63132481  0.96374740    -0.28900
C2775       C  0.10522672  0.64481541  0.99025395     0.06700
C2776       C  0.11422248  0.66799036  0.98645193    -0.27600
H2777       H  0.09195826  0.60913921  0.91016929     0.11400
H2778       H  0.09899460  0.62552108  0.85859924     0.12500
H2779       H  0.13223087  0.71162699  0.97264069     0.11600
H2780       H  0.14011738  0.72811348  0.92111941     0.10800
H2781       H  0.13998350  0.72397872  0.86518636     0.16200
H2782       H  0.11312397  0.65862202  0.82471917     0.12100
H2783       H  0.09322887  0.61342893  0.96614737     0.15000
H2784       H  0.11821395  0.67859029  0.00651525     0.14800
C2785       C  0.30029448  0.83702806  0.72090477    -0.18100
C2786       C  0.28015731  0.82079587  0.73410423    -0.20300
C2787       C  0.26052823  0.80988325  0.71642284     0.20400
C2788       C  0.26138822  0.81508811  0.68488489    -0.03200
C2789       C  0.28181312  0.83132967  0.67145505    -0.06300
C2790       C  0.30126270  0.84258279  0.68969502     0.20600
C2791       C  0.28261118  0.83675369  0.64002926     0.18800
C2792       C  0.26304762  0.82559654  0.62222144    -0.17800
C2793       C  0.24281270  0.80966674  0.63555230    -0.20000
C2794       C  0.24174991  0.80449045  0.66693144     0.20300
C2795       C  0.22132468  0.78928929  0.68078656    -0.33000
C2796       C  0.22017847  0.78423622  0.71237453     0.01000
C2797       C  0.24000206  0.79429390  0.72987529    -0.24300
C2798       C  0.32114113  0.85970976  0.67672433    -0.28900
C2799       C  0.32198412  0.86582967  0.64563637     0.06700
C2800       C  0.30271700  0.85377183  0.62725492    -0.27600
H2801       H  0.31508100  0.84547273  0.73525388     0.11400
H2802       H  0.27986590  0.81704979  0.75831762     0.12500
H2803       H  0.26329931  0.82948972  0.59806918     0.11600
H2804       H  0.22790718  0.80160061  0.62137403     0.10800
H2805       H  0.20621838  0.78147638  0.66696133     0.16200
H2806       H  0.23932457  0.79060206  0.75417423     0.12100
H2807       H  0.33581690  0.86877759  0.69115269     0.15000
H2808       H  0.30301978  0.85839705  0.60339600     0.14800
C2809       C  0.00912088  0.63866719  0.79862855    -0.18100
C2810       C  0.98596874  0.62690180  0.80294690    -0.20300
C2811       C  0.97136418  0.62193521  0.77790350     0.20400
C2812       C  0.98007306  0.62810192  0.74807187    -0.03200
C2813       C  0.00348316  0.63988699  0.74369699    -0.06300
C2814       C  0.01809823  0.64561054  0.76917687     0.20600
C2815       C  0.01223743  0.64659130  0.71398257     0.18800
C2816       C  0.99759990  0.64092798  0.68880315    -0.17800
C2817       C  0.97442528  0.62937550  0.69316322    -0.20000
C2818       C  0.96544532  0.62317396  0.72276532     0.20300
C2819       C  0.94222430  0.61288627  0.72764918    -0.33000
C2820       C  0.93350983  0.60763733  0.75759014     0.01000
C2821       C  0.94826233  0.61163708  0.78239612    -0.24300
C2822       C  0.04135488  0.65882689  0.76493328    -0.28900
C2823       C  0.05022195  0.66641853  0.73548867     0.06700
C2824       C  0.03544158  0.65954491  0.71005373    -0.27600
H2825       H  0.02001232  0.64273491  0.81843309     0.11400
H2826       H  0.97948739  0.62214171  0.82602244     0.12500
H2827       H  0.00409055  0.64589066  0.66576576     0.11600
H2828       H  0.96354098  0.62567556  0.67342653     0.10800
H2829       H  0.93110837  0.60985329  0.70836980     0.16200
H2830       H  0.94184620  0.60739078  0.80558306     0.12100
H2831       H  0.05244831  0.66379096  0.78464185     0.15000
H2832       H  0.04188317  0.66501030  0.68709520     0.14800
C2833       C  0.13328415  0.79444585  0.53637985    -0.18100
C2834       C  0.14093673  0.78570248  0.55914341    -0.20300
C2835       C  0.13466604  0.78519310  0.58982509     0.20400
C2836       C  0.12125840  0.79437081  0.59789544    -0.03200
C2837       C  0.11304580  0.80261899  0.57484218    -0.06300
C2838       C  0.11893518  0.80242945  0.54391270     0.20600
C2839       C  0.09797496  0.80987607  0.58252658     0.18800
C2840       C  0.09239882  0.81017611  0.61337238    -0.17800
C2841       C  0.10103764  0.80255928  0.63636753    -0.20000
C2842       C  0.11503316  0.79415165  0.62876151     0.20300
C2843       C  0.12183297  0.78431522  0.65116267    -0.33000
C2844       C  0.13371801  0.77374349  0.64274919     0.01000
C2845       C  0.14052867  0.77459634  0.61231224    -0.24300
C2846       C  0.10932538  0.80895497  0.52086672    -0.28900
C2847       C  0.09309046  0.81452738  0.52824125     0.06700
C2848       C  0.08785598  0.81553434  0.55906852    -0.27600
H2849       H  0.13792096  0.79419832  0.51272192     0.11400
H2850       H  0.15133139  0.77885932  0.55265031     0.12500
H2851       H  0.08095690  0.81581580  0.61963300     0.11600
H2852       H  0.09611602  0.80247732  0.65996492     0.10800
H2853       H  0.11638953  0.78330051  0.67472296     0.16200
H2854       H  0.14967724  0.76633095  0.60604688     0.12100
H2855       H  0.11310534  0.80793184  0.49699117     0.15000
H2856       H  0.07530956  0.81988963  0.56463734     0.14800
C2857       C  0.16976193  0.83335103  0.88707216    -0.18100
C2858       C  0.16830045  0.81506458  0.87144853    -0.20300
C2859       C  0.16171518  0.81124919  0.84049973     0.20400
C2860       C  0.15607020  0.82568590  0.82526336    -0.03200
C2861       C  0.15756018  0.84416933  0.84104648    -0.06300
C2862       C  0.16462173  0.84810317  0.87202362     0.20600
C2863       C  0.15214941  0.85877387  0.82578297     0.18800
C2864       C  0.14511626  0.85467112  0.79499034    -0.17800
C2865       C  0.14367369  0.83636346  0.77932693    -0.20000
C2866       C  0.14926502  0.82185185  0.79417185     0.20300
C2867       C  0.14870696  0.80391933  0.77832620    -0.33000
C2868       C  0.15519782  0.79000282  0.79310357     0.01000
C2869       C  0.16120162  0.79354508  0.82438080    -0.24300
C2870       C  0.16632008  0.86663363  0.88748602    -0.28900
C2871       C  0.16079110  0.88119906  0.87254834     0.06700
C2872       C  0.15377978  0.87715647  0.84161119    -0.27600
H2873       H  0.17505153  0.83603392  0.91089670     0.11400
H2874       H  0.17257304  0.80403546  0.88349199     0.12500
H2875       H  0.14082901  0.86569380  0.78296103     0.11600
H2876       H  0.13838282  0.83367666  0.75550408     0.10800
H2877       H  0.14399028  0.80129259  0.75426874     0.16200
H2878       H  0.16589735  0.78272206  0.83613491     0.12100
H2879       H  0.17152630  0.86944693  0.91135805     0.15000
H2880       H  0.14949830  0.88827940  0.82982653     0.14800
C2881       C  0.30471904  0.48021483  0.22548677    -0.18100
C2882       C  0.28507978  0.47773178  0.23827630    -0.20300
C2883       C  0.26537390  0.46889771  0.22074118     0.20400
C2884       C  0.26583447  0.46351014  0.18956493    -0.03200
C2885       C  0.28568121  0.46619060  0.17659725    -0.06300
C2886       C  0.30504614  0.47401600  0.19487877     0.20600
C2887       C  0.28582466  0.46008130  0.14571013     0.18800
C2888       C  0.26641999  0.45208047  0.12779575    -0.17800
C2889       C  0.24676222  0.44927756  0.14067129    -0.20000
C2890       C  0.24621467  0.45452579  0.17163714     0.20300
C2891       C  0.22613452  0.45002764  0.18523326    -0.33000
C2892       C  0.22515474  0.45422195  0.21665343     0.01000
C2893       C  0.24503026  0.46442899  0.23406977    -0.24300
C2894       C  0.32401224  0.47452819  0.18262330    -0.28900
C2895       C  0.32387413  0.46741681  0.15225684     0.06700
C2896       C  0.30499072  0.46104042  0.13365059    -0.27600
H2897       H  0.31950806  0.48646096  0.23978380     0.11400
H2898       H  0.28514650  0.48212912  0.26214896     0.12500
H2899       H  0.26626608  0.44738494  0.10404078     0.11600
H2900       H  0.23181974  0.44247168  0.12658816     0.10800
H2901       H  0.21100539  0.44253439  0.17144458     0.16200
H2902       H  0.24445828  0.46777611  0.25824564     0.12100
H2903       H  0.33859692  0.47971516  0.19705268     0.15000
H2904       H  0.30469468  0.45551766  0.11028819     0.14800
C2905       C  0.12478485  0.51300248  0.09774083    -0.18100
C2906       C  0.12802059  0.49639121  0.11093374    -0.20300
C2907       C  0.12495882  0.49195197  0.14258252     0.20400
C2908       C  0.11873707  0.50450995  0.16116542    -0.03200
C2909       C  0.11522883  0.52115726  0.14776021    -0.06300
C2910       C  0.11828440  0.52544476  0.11587741     0.20600
C2911       C  0.10825868  0.53318982  0.16616692     0.18800
C2912       C  0.10535589  0.52886464  0.19785142    -0.17800
C2913       C  0.10903803  0.51256256  0.21114326    -0.20000
C2914       C  0.11555012  0.50012044  0.19300504     0.20300
C2915       C  0.11826052  0.48295247  0.20595973    -0.33000
C2916       C  0.12372804  0.46977577  0.18739559     0.01000
C2917       C  0.12741669  0.47476958  0.15575381    -0.24300
C2918       C  0.11436076  0.54174428  0.10262195    -0.28900
C2919       C  0.10682806  0.55341807  0.12070141     0.06700
C2920       C  0.10393665  0.54904169  0.15252226    -0.27600
H2921       H  0.12712755  0.51594089  0.07324035     0.11400
H2922       H  0.13275333  0.48686617  0.09628758     0.12500
H2923       H  0.10005279  0.53798668  0.21236159     0.11600
H2924       H  0.10647360  0.50946543  0.23559223     0.10800
H2925       H  0.11513836  0.47922031  0.23022221     0.16200
H2926       H  0.13164436  0.46484923  0.14108365     0.12100
H2927       H  0.11636869  0.54475269  0.07809595     0.15000
H2928       H  0.09817133  0.55793966  0.16670640     0.14800
C2929       C  0.18622022  0.35333325  0.38350680    -0.18100
C2930       C  0.18599699  0.37062669  0.36718953    -0.20300
C2931       C  0.17516532  0.36649467  0.33859807     0.20400
C2932       C  0.16465351  0.34477992  0.32611604    -0.03200
C2933       C  0.16487053  0.32726399  0.34265293    -0.06300
C2934       C  0.17560305  0.33154997  0.37157595     0.20600
C2935       C  0.15417105  0.30546824  0.33040529     0.18800
C2936       C  0.14364401  0.30142769  0.30155401    -0.17800
C2937       C  0.14345965  0.31877759  0.28516850    -0.20000
C2938       C  0.15378521  0.34053524  0.29729755     0.20300
C2939       C  0.15335542  0.35806682  0.28128379    -0.33000
C2940       C  0.16367471  0.37983364  0.29377367     0.01000
C2941       C  0.17461120  0.38374052  0.32245836    -0.24300
C2942       C  0.17531612  0.31398807  0.38825536    -0.28900
C2943       C  0.16429890  0.29204878  0.37655499     0.06700
C2944       C  0.15395982  0.28806646  0.34735321    -0.27600
H2945       H  0.19458029  0.35698245  0.40560348     0.11400
H2946       H  0.19421517  0.38725946  0.37705397     0.12500
H2947       H  0.13539965  0.28478271  0.29172641     0.11600
H2948       H  0.13510215  0.31513226  0.26307181     0.10800
H2949       H  0.14499657  0.35475494  0.25920593     0.16200
H2950       H  0.18273289  0.40032309  0.33249194     0.12100
H2951       H  0.18337260  0.31736549  0.41056642     0.15000
H2952       H  0.14553080  0.27132901  0.33780218     0.14800
C2953       C  0.14479814  0.19915539  0.93588190    -0.18100
C2954       C  0.16121261  0.19562159  0.94914564    -0.20300
C2955       C  0.16810648  0.20194306  0.97968611     0.20400
C2956       C  0.15823121  0.21179634  0.99706899    -0.03200
C2957       C  0.14189699  0.21565957  0.98353594    -0.06300
C2958       C  0.13509063  0.20927391  0.95279503     0.20600
C2959       C  0.13261535  0.22618731  0.00067866     0.18800
C2960       C  0.13943430  0.23246428  0.03122057    -0.17800
C2961       C  0.15540567  0.22843917  0.04469059    -0.20000
C2962       C  0.16496234  0.21818759  0.02781483     0.20300
C2963       C  0.18155973  0.21480416  0.04091741    -0.33000
C2964       C  0.19205582  0.20568482  0.02349193     0.01000
C2965       C  0.18506339  0.19911105  0.99291210    -0.24300
C2966       C  0.11896209  0.21340471  0.93944725    -0.28900
C2967       C  0.10990706  0.22427048  0.95629432     0.06700
C2968       C  0.11685420  0.23050164  0.98695549    -0.27600
H2969       H  0.13986095  0.19417485  0.91225660     0.11400
H2970       H  0.16860976  0.18803704  0.93543283     0.12500
H2971       H  0.13246892  0.24058801  0.04468606     0.11600
H2972       H  0.16046100  0.23356999  0.06824772     0.10800
H2973       H  0.18711318  0.22034163  0.06423861     0.16200
H2974       H  0.19314985  0.19221174  0.97921631     0.12100
H2975       H  0.11389127  0.20868358  0.91578159     0.15000
H2976       H  0.10995171  0.23876310  0.00028007     0.14800
C2977       C  0.94619354  0.15425981  0.07437895    -0.18100
C2978       C  0.96624828  0.17086132  0.06135526    -0.20300
C2979       C  0.96724855  0.17638042  0.03010849     0.20400
C2980       C  0.94790176  0.16477432  0.01173240    -0.03200
C2981       C  0.92757699  0.14827051  0.02498411    -0.06300
C2982       C  0.92667435  0.14300446  0.05649505     0.20600
C2983       C  0.90805529  0.13743276  0.00681379     0.18800
C2984       C  0.90908880  0.14265989  0.97549864    -0.17800
C2985       C  0.92923307  0.15875911  0.96232218    -0.20000
C2986       C  0.94867753  0.17006892  0.98027225     0.20300
C2987       C  0.96863619  0.18711232  0.96749898    -0.33000
C2988       C  0.98777376  0.19950603  0.98587782     0.01000
C2989       C  0.98700965  0.19374842  0.01713194    -0.24300
C2990       C  0.90618153  0.12700983  0.06964173    -0.28900
C2991       C  0.88649643  0.11669982  0.05179654     0.06700
C2992       C  0.88771993  0.12189626  0.02033406    -0.27600
H2993       H  0.94586863  0.15049137  0.09858976     0.11400
H2994       H  0.98093954  0.17956125  0.07582855     0.12500
H2995       H  0.89423915  0.13444351  0.96122818     0.11600
H2996       H  0.92950860  0.16265084  0.93816438     0.10800
H2997       H  0.96888324  0.19153998  0.94355649     0.16200
H2998       H  0.00161850  0.20318395  0.03155690     0.12100
H2999       H  0.90539233  0.12322104  0.09391963     0.15000
H3000       H  0.87271032  0.11392311  0.00631577     0.14800
C3001       C  0.14115682  0.37474142  0.05654218    -0.18100
C3002       C  0.13276903  0.35833752  0.03363410    -0.20300
C3003       C  0.12113910  0.33558526  0.04150669     0.20400
C3004       C  0.11904231  0.32925516  0.07268235    -0.03200
C3005       C  0.12812871  0.34580270  0.09573472    -0.06300
C3006       C  0.13845045  0.36863314  0.08764797     0.20600
C3007       C  0.12565194  0.33945580  0.12692896     0.18800
C3008       C  0.11467436  0.31670894  0.13475603    -0.17800
C3009       C  0.10508290  0.30031732  0.11194760    -0.20000
C3010       C  0.10673411  0.30642906  0.08093243     0.20300
C3011       C  0.09534142  0.29024965  0.05816883    -0.33000
C3012       C  0.09677187  0.29660923  0.02729092     0.01000
C3013       C  0.11044766  0.31911102  0.01891901    -0.24300
C3014       C  0.14461661  0.38477923  0.11081038    -0.28900
C3015       C  0.14124233  0.37835589  0.14182097     0.06700
C3016       C  0.13284095  0.35588275  0.14977516    -0.27600
H3017       H  0.14923612  0.39218735  0.04994497     0.11400
H3018       H  0.13457424  0.36344671  0.00979345     0.12500
H3019       H  0.11268688  0.31159478  0.15860594     0.11600
H3020       H  0.09588695  0.28287311  0.11862259     0.10800
H3021       H  0.08483273  0.27282524  0.06447950     0.16200
H3022       H  0.11133981  0.32394944  0.99503461     0.12100
H3023       H  0.15114500  0.40217350  0.10477218     0.15000
H3024       H  0.13002808  0.35096748  0.17373894     0.14800
C3025       C  0.15055172  0.35464576  0.88269847    -0.18100
C3026       C  0.16863603  0.37234388  0.86754344    -0.20300
C3027       C  0.17694791  0.36858449  0.84023908     0.20400
C3028       C  0.16674602  0.34682753  0.82787484    -0.03200
C3029       C  0.14846189  0.32895255  0.84317338    -0.06300
C3030       C  0.14044683  0.33283401  0.87087444     0.20600
C3031       C  0.13842268  0.30716739  0.83094363     0.18800
C3032       C  0.14646302  0.30346189  0.80337047    -0.17800
C3033       C  0.16454941  0.32113937  0.78824953    -0.20000
C3034       C  0.17490858  0.34287444  0.80036804     0.20300
C3035       C  0.19324759  0.36068104  0.78544861    -0.33000
C3036       C  0.20360098  0.38250193  0.79759254     0.01000
C3037       C  0.19526299  0.38620298  0.82511756    -0.24300
C3038       C  0.12281593  0.31479896  0.88656041    -0.28900
C3039       C  0.11313893  0.29285689  0.87498560     0.06700
C3040       C  0.12083173  0.28936691  0.84676916    -0.27600
H3041       H  0.14460676  0.35799403  0.90385082     0.11400
H3042       H  0.17621628  0.38898261  0.87729869     0.12500
H3043       H  0.13889069  0.28681897  0.79362756     0.11600
H3044       H  0.17051198  0.31777794  0.76712417     0.10800
H3045       H  0.19937536  0.35753518  0.76430134     0.16200
H3046       H  0.20295187  0.40287238  0.83481240     0.12100
H3047       H  0.11699564  0.31779882  0.90809113     0.15000
H3048       H  0.11345906  0.27264813  0.83731586     0.14800
C3049       C  0.14084266  0.43991787  0.42739209    -0.18100
C3050       C  0.13627976  0.44514433  0.45650342    -0.20300
C3051       C  0.12287326  0.45483182  0.45966974     0.20400
C3052       C  0.11356150  0.45880508  0.43315760    -0.03200
C3053       C  0.11797904  0.45328822  0.40372309    -0.06300
C3054       C  0.13198143  0.44415213  0.40087130     0.20600
C3055       C  0.10881110  0.45738212  0.37716151     0.18800
C3056       C  0.09492218  0.46653628  0.38041385    -0.17800
C3057       C  0.09076375  0.47224551  0.40950878    -0.20000
C3058       C  0.10024763  0.46873170  0.43597945     0.20300
C3059       C  0.09699071  0.47532365  0.46512338    -0.33000
C3060       C  0.10648554  0.47173776  0.49169153     0.01000
C3061       C  0.11901554  0.46102475  0.48877743    -0.24300
C3062       C  0.13733389  0.43988534  0.37156694    -0.28900
C3063       C  0.12890213  0.44455172  0.34476264     0.06700
C3064       C  0.11415732  0.45280381  0.34786334    -0.27600
H3065       H  0.15155320  0.43279814  0.42560119     0.11400
H3066       H  0.14354534  0.44192928  0.47653547     0.12500
H3067       H  0.08760191  0.46968295  0.36038416     0.11600
H3068       H  0.08031997  0.47966777  0.41126806     0.10800
H3069       H  0.08705864  0.48330499  0.46714773     0.16200
H3070       H  0.12639614  0.45821263  0.50904013     0.12100
H3071       H  0.14841277  0.43318982  0.36968502     0.15000
H3072       H  0.10740645  0.45631703  0.32751700     0.14800
C3073       C  0.11708054  0.61208002  0.70834293    -0.18100
C3074       C  0.11440142  0.59240773  0.69547703    -0.20300
C3075       C  0.11599535  0.59060553  0.66361418     0.20400
C3076       C  0.12084114  0.60895403  0.64453351    -0.03200
C3077       C  0.12334002  0.62876487  0.65752008    -0.06300
C3078       C  0.12123708  0.63022820  0.68954803     0.20600
C3079       C  0.12720807  0.64679172  0.63838066     0.18800
C3080       C  0.12919540  0.64510674  0.60654690    -0.17800
C3081       C  0.12690870  0.62554203  0.59369775    -0.20000
C3082       C  0.12249691  0.60726271  0.61242611     0.20300
C3083       C  0.11898968  0.58709861  0.59959672    -0.33000
C3084       C  0.11326983  0.56849168  0.61846053     0.01000
C3085       C  0.11214954  0.57053405  0.65045983    -0.24300
C3086       C  0.12240799  0.64941342  0.70212713    -0.28900
C3087       C  0.12516442  0.66703788  0.68308250     0.06700
C3088       C  0.12816470  0.66581589  0.65126834    -0.27600
H3089       H  0.11542243  0.61292050  0.73295822     0.11400
H3090       H  0.11074199  0.57846126  0.71042738     0.12500
H3091       H  0.13216934  0.65880329  0.59150718     0.11600
H3092       H  0.12819247  0.62456451  0.56903189     0.10800
H3093       H  0.11961188  0.58553054  0.57491122     0.16200
H3094       H  0.10780978  0.55625691  0.66512862     0.12100
H3095       H  0.12004204  0.65009665  0.72660312     0.15000
H3096       H  0.13040771  0.67930893  0.63631121     0.14800
C3097       C  0.17496137  0.45517462  0.62502010    -0.18100
C3098       C  0.19127263  0.45183067  0.63891123    -0.20300
C3099       C  0.19627441  0.45636759  0.67027814     0.20400
C3100       C  0.18544514  0.46525584  0.68754668    -0.03200
C3101       C  0.16886814  0.46850825  0.67354995    -0.06300
C3102       C  0.16330585  0.46304025  0.64227720     0.20600
C3103       C  0.15721843  0.47631472  0.69118833     0.18800
C3104       C  0.16294374  0.48180920  0.72220629    -0.17800
C3105       C  0.17947468  0.47875008  0.73600497    -0.20000
C3106       C  0.19052102  0.47004521  0.71907517     0.20300
C3107       C  0.20587787  0.46523505  0.73334217    -0.33000
C3108       C  0.21579435  0.45520240  0.71659655     0.01000
C3109       C  0.21128807  0.45137953  0.68489072    -0.24300
C3110       C  0.14551550  0.46452016  0.62922741    -0.28900
C3111       C  0.13289872  0.47094747  0.64723546     0.06700
C3112       C  0.13938646  0.47752518  0.67792844    -0.27600
H3113       H  0.17103141  0.45101534  0.60096565     0.11400
H3114       H  0.19960290  0.44517605  0.62526946     0.12500
H3115       H  0.15424733  0.48797216  0.73602077     0.11600
H3116       H  0.18320241  0.48264656  0.76015168     0.10800
H3117       H  0.20927045  0.46828549  0.75771315     0.16200
H3118       H  0.21912393  0.44399806  0.67164599     0.12100
H3119       H  0.14070133  0.45942529  0.60558641     0.15000
H3120       H  0.12997334  0.48276427  0.69193430     0.14800
C3121       C  0.96454391  0.48838333  0.53834523    -0.18100
C3122       C  0.98211797  0.48820590  0.55392756    -0.20300
C3123       C  0.00271880  0.49577702  0.53940611     0.20400
C3124       C  0.00559354  0.50351392  0.50879558    -0.03200
C3125       C  0.98786603  0.50373803  0.49308100    -0.06300
C3126       C  0.96727351  0.49614262  0.50797800     0.20600
C3127       C  0.99076355  0.51158477  0.46252955     0.18800
C3128       C  0.01131804  0.51897019  0.44791768    -0.17800
C3129       C  0.02888365  0.51873907  0.46348251    -0.20000
C3130       C  0.02620399  0.51115032  0.49393806     0.20300
C3131       C  0.04386083  0.51131150  0.50988485    -0.33000
C3132       C  0.04130040  0.50400122  0.54061910     0.01000
C3133       C  0.02054811  0.49599146  0.55507951    -0.24300
C3134       C  0.94970890  0.49632161  0.49224611    -0.28900
C3135       C  0.95234140  0.50401697  0.46171886     0.06700
C3136       C  0.97302995  0.51177521  0.44709278    -0.27600
H3137       H  0.94880024  0.48246977  0.55007982     0.11400
H3138       H  0.97961446  0.48221271  0.57739174     0.12500
H3139       H  0.01382479  0.52496394  0.42445452     0.11600
H3140       H  0.04461796  0.52460968  0.45173756     0.10800
H3141       H  0.05970330  0.51734615  0.49834228     0.16200
H3142       H  0.01837674  0.49032421  0.57870010     0.12100
H3143       H  0.93390201  0.49036689  0.50385022     0.15000
H3144       H  0.97522720  0.51760567  0.42355261     0.14800
C3145       C  0.87301422  0.48648875  0.78831467    -0.18100
C3146       C  0.87647246  0.46989483  0.80104232    -0.20300
C3147       C  0.87534674  0.46648021  0.83293746     0.20400
C3148       C  0.87016712  0.47958278  0.85213907    -0.03200
C3149       C  0.86692464  0.49652286  0.83929860    -0.06300
C3150       C  0.86852325  0.50011388  0.80724298     0.20600
C3151       C  0.86270450  0.51024877  0.85862882     0.18800
C3152       C  0.86115603  0.50655632  0.89047629    -0.17800
C3153       C  0.86410017  0.48963508  0.90314383    -0.20000
C3154       C  0.86881363  0.47617490  0.88423971     0.20300
C3155       C  0.87280833  0.45982106  0.89692852    -0.33000
C3156       C  0.87883319  0.44730083  0.87803451     0.01000
C3157       C  0.87986261  0.45061060  0.84601840    -0.24300
C3158       C  0.86636553  0.51771448  0.79480128    -0.28900
C3159       C  0.86304781  0.53209228  0.81405271     0.06700
C3160       C  0.86079717  0.52786376  0.84593276    -0.27600
H3161       H  0.87427434  0.48894381  0.76366922     0.11400
H3162       H  0.88031361  0.45990483  0.78593431     0.12500
H3163       H  0.85792454  0.51695008  0.90566552     0.11600
H3164       H  0.86305256  0.48732162  0.92781623     0.10800
H3165       H  0.87223354  0.45754100  0.92161057     0.16200
H3166       H  0.88443414  0.44096834  0.83131370     0.12100
H3167       H  0.86830970  0.52083472  0.77029636     0.15000
H3168       H  0.85818476  0.53871170  0.86108586     0.14800
C3169       C  0.81581180  0.27216836  0.87642242    -0.18100
C3170       C  0.79936848  0.25233283  0.86284621    -0.20300
C3171       C  0.79380819  0.25189772  0.83174163     0.20400
C3172       C  0.80430198  0.27174905  0.81433798    -0.03200
C3173       C  0.82103756  0.29176234  0.82800639    -0.06300
C3174       C  0.82703314  0.29186066  0.85907023     0.20600
C3175       C  0.83241030  0.31139700  0.81025947     0.18800
C3176       C  0.82623731  0.31109997  0.77942447    -0.17800
C3177       C  0.80949924  0.29129563  0.76593983    -0.20000
C3178       C  0.79871367  0.27141138  0.78300991     0.20300
C3179       C  0.78311008  0.25105386  0.76909716    -0.33000
C3180       C  0.77350264  0.23105001  0.78605157     0.01000
C3181       C  0.77854109  0.23176952  0.81751594    -0.24300
C3182       C  0.84486475  0.31131181  0.87183787    -0.28900
C3183       C  0.85723330  0.33052722  0.85375168     0.06700
C3184       C  0.85042493  0.33065161  0.82324165    -0.27600
H3185       H  0.82017454  0.27196188  0.90029321     0.11400
H3186       H  0.79134368  0.23720530  0.87651581     0.12500
H3187       H  0.83472125  0.32607523  0.76551691     0.11600
H3188       H  0.80539402  0.29141029  0.74193359     0.10800
H3189       H  0.77929814  0.25060677  0.74485316     0.16200
H3190       H  0.77093974  0.21646217  0.83086131     0.12100
H3191       H  0.84998197  0.31100670  0.89530821     0.15000
H3192       H  0.85972702  0.34545254  0.80919056     0.14800
C3193       C  0.94588117  0.30397239  0.96931629    -0.18100
C3194       C  0.95705619  0.29209505  0.97390082    -0.20300
C3195       C  0.96678880  0.28724014  0.94909483     0.20400
C3196       C  0.96453844  0.29367092  0.91922398    -0.03200
C3197       C  0.95318534  0.30561404  0.91459104    -0.06300
C3198       C  0.94418015  0.31119462  0.93983089     0.20600
C3199       C  0.95150481  0.31258923  0.88484049     0.18800
C3200       C  0.96059931  0.30710318  0.85988319    -0.17800
C3201       C  0.97190902  0.29538040  0.86448740    -0.20000
C3202       C  0.97428089  0.28885757  0.89411960     0.20300
C3203       C  0.98692697  0.27840870  0.89921268    -0.33000
C3204       C  0.99020331  0.27294645  0.92917461     0.01000
C3205       C  0.97943865  0.27684063  0.95383134    -0.24300
C3206       C  0.93430509  0.32447110  0.93528793    -0.28900
C3207       C  0.93327944  0.33220590  0.90575575     0.06700
C3208       C  0.94143198  0.32556510  0.88061357    -0.27600
H3209       H  0.93895777  0.30790155  0.98895612     0.11400
H3210       H  0.95852539  0.28714244  0.99700413     0.12500
H3211       H  0.95937553  0.31229926  0.83682784     0.11600
H3212       H  0.97917966  0.29179912  0.84491965     0.10800
H3213       H  0.99505786  0.27551152  0.88004904     0.16200
H3214       H  0.98154288  0.27249714  0.97703234     0.12100
H3215       H  0.92797961  0.32923858  0.95478824     0.15000
H3216       H  0.94073281  0.33117930  0.85761306     0.14800
C3217       C  0.97525318  0.44834201  0.69806957    -0.18100
C3218       C  0.95874102  0.43900003  0.72065260    -0.20300
C3219       C  0.96444613  0.44345135  0.75183037     0.20400
C3220       C  0.98693527  0.45804559  0.76031402    -0.03200
C3221       C  0.00368655  0.46702374  0.73755685    -0.06300
C3222       C  0.99779334  0.46201071  0.70630572     0.20600
C3223       C  0.02638796  0.48010108  0.74617901     0.18800
C3224       C  0.03199539  0.48516986  0.77730614    -0.17800
C3225       C  0.01534054  0.47676201  0.79979706    -0.20000
C3226       C  0.99282392  0.46279364  0.79161066     0.20300
C3227       C  0.97627109  0.45252460  0.81420021    -0.33000
C3228       C  0.95416713  0.43679820  0.80590477     0.01000
C3229       C  0.94826170  0.43271138  0.77470546    -0.24300
C3230       C  0.01460784  0.46980897  0.68398586    -0.28900
C3231       C  0.03722874  0.48161872  0.69261689     0.06700
C3232       C  0.04305979  0.48698180  0.72366494    -0.27600
H3233       H  0.97046277  0.44430509  0.67419268     0.11400
H3234       H  0.94154733  0.42792572  0.71375449     0.12500
H3235       H  0.04931010  0.49530238  0.78432013     0.11600
H3236       H  0.02015368  0.48058528  0.82370209     0.10800
H3237       H  0.98089180  0.45545557  0.83828492     0.16200
H3238       H  0.93120931  0.42057831  0.76831731     0.12100
H3239       H  0.01015756  0.46528642  0.66009547     0.15000
H3240       H  0.06053799  0.49592083  0.73030499     0.14800
C3241       C  0.02780333  0.51842489  0.96170343    -0.18100
C3242       C  0.01046367  0.50049900  0.94571975    -0.20300
C3243       C  0.98890446  0.48877433  0.95819327     0.20400
C3244       C  0.98470695  0.49560316  0.98672163    -0.03200
C3245       C  0.00218673  0.51367890  0.00283912    -0.06300
C3246       C  0.02388517  0.52491409  0.99044872     0.20600
C3247       C  0.99802724  0.52018391  0.03163269     0.18800
C3248       C  0.97632693  0.50898267  0.04363189    -0.17800
C3249       C  0.95901884  0.49109546  0.02767347    -0.20000
C3250       C  0.96312765  0.48414470  0.99944106     0.20300
C3251       C  0.94602143  0.46579341  0.98390234    -0.33000
C3252       C  0.95000256  0.45856716  0.95563563     0.01000
C3253       C  0.97152706  0.47026912  0.94281794    -0.24300
C3254       C  0.04138752  0.54207734  0.00733151    -0.28900
C3255       C  0.03758365  0.54811464  0.03663544     0.06700
C3256       C  0.01571038  0.53738856  0.04827653    -0.27600
H3257       H  0.04437042  0.52700854  0.95177912     0.11400
H3258       H  0.01398156  0.49564043  0.92376476     0.12500
H3259       H  0.97280430  0.51383966  0.06558636     0.11600
H3260       H  0.94245153  0.48251784  0.03760141     0.10800
H3261       H  0.92952833  0.45705965  0.99406796     0.16200
H3262       H  0.97475178  0.46503152  0.92094366     0.12100
H3263       H  0.05809268  0.55041393  0.99782519     0.15000
H3264       H  0.01249920  0.54204248  0.07060293     0.14800
C3265       C  0.96151557  0.18847142  0.78905100    -0.18100
C3266       C  0.95255133  0.18467284  0.75934431    -0.20300
C3267       C  0.96595908  0.19672260  0.73428588     0.20400
C3268       C  0.98854609  0.21291802  0.73914089    -0.03200
C3269       C  0.99765451  0.21664020  0.76914717    -0.06300
C3270       C  0.98407646  0.20433792  0.79424411     0.20600
C3271       C  0.02040873  0.23241403  0.77393678     0.18800
C3272       C  0.03369941  0.24473551  0.74894454    -0.17800
C3273       C  0.02461934  0.24118725  0.71928025    -0.20000
C3274       C  0.00210781  0.22513210  0.71399106     0.20300
C3275       C  0.99303635  0.22076347  0.68401749    -0.33000
C3276       C  0.97060731  0.20414574  0.67890052     0.01000
C3277       C  0.95719790  0.19252086  0.70441582    -0.24300
C3278       C  0.99337691  0.20787264  0.82394685    -0.28900
C3279       C  0.01621372  0.22311579  0.82866903     0.06700
C3280       C  0.02955039  0.23538194  0.80354297    -0.27600
H3281       H  0.95084106  0.17883297  0.80792977     0.11400
H3282       H  0.93512896  0.17215750  0.75593055     0.12500
H3283       H  0.05120006  0.25702139  0.75230404     0.11600
H3284       H  0.03530046  0.25080464  0.70039806     0.10800
H3285       H  0.00351637  0.22991709  0.66472007     0.16200
H3286       H  0.93982046  0.17982535  0.70109451     0.12100
H3287       H  0.98306791  0.19829946  0.84315913     0.15000
H3288       H  0.04714658  0.24732154  0.80708646     0.14800
C3289       C  0.86217493  0.08499654  0.47257071    -0.18100
C3290       C  0.84501451  0.06519510  0.45978899    -0.20300
C3291       C  0.83096717  0.04709198  0.47868838     0.20400
C3292       C  0.83466215  0.04876528  0.51075312    -0.03200
C3293       C  0.85212628  0.06868042  0.52364196    -0.06300
C3294       C  0.86567134  0.08697486  0.50444602     0.20600
C3295       C  0.85554911  0.07053944  0.55577907     0.18800
C3296       C  0.84163315  0.05235839  0.57464959    -0.17800
C3297       C  0.82421571  0.03268892  0.56189326    -0.20000
C3298       C  0.82047591  0.03082753  0.53003604     0.20300
C3299       C  0.80232663  0.01165335  0.51726443    -0.33000
C3300       C  0.79799828  0.01012927  0.48542224     0.01000
C3301       C  0.81280313  0.02770603  0.46620109    -0.24300
C3302       C  0.88195799  0.10718459  0.51752366    -0.28900
C3303       C  0.88508667  0.10934237  0.54951521     0.06700
C3304       C  0.87226975  0.09080582  0.56850493    -0.27600
H3305       H  0.87249581  0.09890584  0.45754742     0.11400
H3306       H  0.84243555  0.06421071  0.43515442     0.12500
H3307       H  0.84395472  0.05349751  0.59933612     0.11600
H3308       H  0.81344066  0.01904340  0.57701039     0.10800
H3309       H  0.79113372  0.99817462  0.53233302     0.16200
H3310       H  0.80960210  0.02677752  0.44170597     0.12100
H3311       H  0.89187373  0.12149128  0.50285521     0.15000
H3312       H  0.87446768  0.09254465  0.59320832     0.14800
C3313       C  0.04068802  0.19549306  0.44158750    -0.18100
C3314       C  0.02098564  0.19320935  0.45385519    -0.20300
C3315       C  0.02116536  0.20252774  0.48255084     0.20400
C3316       C  0.04134481  0.21387388  0.49930331    -0.03200
C3317       C  0.06128366  0.21640621  0.48675176    -0.06300
C3318       C  0.06101467  0.20731389  0.45764016     0.20600
C3319       C  0.08156359  0.22849170  0.50305647     0.18800
C3320       C  0.08170746  0.23743910  0.53200127    -0.17800
C3321       C  0.06197357  0.23476487  0.54452595    -0.20000
C3322       C  0.04173967  0.22317433  0.52828517     0.20300
C3323       C  0.02205255  0.22124659  0.54019328    -0.33000
C3324       C  0.00200591  0.21064527  0.52321949     0.01000
C3325       C  0.00168409  0.20116596  0.49446954    -0.24300
C3326       C  0.08114009  0.21074760  0.44478392    -0.28900
C3327       C  0.10159907  0.22353771  0.46046240     0.06700
C3328       C  0.10146811  0.23194617  0.48987453    -0.27600
H3329       H  0.04008899  0.18833338  0.41926734     0.11400
H3330       H  0.00562793  0.18434110  0.44071934     0.12500
H3331       H  0.09715964  0.24674869  0.54483094     0.11600
H3332       H  0.06260354  0.24205393  0.56675816     0.10800
H3333       H  0.02257025  0.22888326  0.56211663     0.16200
H3334       H  0.98632820  0.19298535  0.48120045     0.12100
H3335       H  0.08097286  0.20418083  0.42215995     0.15000
H3336       H  0.11701031  0.24160545  0.50242341     0.14800
C3337       C  0.81780855  0.14095584  0.70752113    -0.18100
C3338       C  0.83507398  0.14081087  0.69126395    -0.20300
C3339       C  0.84595801  0.15612551  0.66738801     0.20400
C3340       C  0.83959516  0.17192686  0.66000880    -0.03200
C3341       C  0.82214055  0.17207111  0.67644734    -0.06300
C3342       C  0.81109098  0.15640057  0.70017721     0.20600
C3343       C  0.81559353  0.18770927  0.66890016     0.18800
C3344       C  0.82683567  0.20335177  0.64545611    -0.17800
C3345       C  0.84412070  0.20320304  0.62917078    -0.20000
C3346       C  0.85050935  0.18742933  0.63604974     0.20300
C3347       C  0.86753765  0.18683087  0.61938708    -0.33000
C3348       C  0.87392284  0.17102899  0.62656963     0.01000
C3349       C  0.86302702  0.15581274  0.65073389    -0.24300
C3350       C  0.79333354  0.15622448  0.71585845    -0.28900
C3351       C  0.78625485  0.17136369  0.70793984     0.06700
C3352       C  0.79773951  0.18724669  0.68462839    -0.27600
H3353       H  0.80957983  0.12884986  0.72569789     0.11400
H3354       H  0.83983206  0.12860767  0.69726238     0.12500
H3355       H  0.82211022  0.21558522  0.63950148     0.11600
H3356       H  0.85238434  0.21533355  0.61103088     0.10800
H3357       H  0.87590855  0.19875164  0.60103880     0.16200
H3358       H  0.86772618  0.14353148  0.65656327     0.12100
H3359       H  0.78477323  0.14402628  0.73384228     0.15000
H3360       H  0.79272022  0.19924417  0.67854289     0.14800
C3361       C  0.04396901  0.35569069  0.53587272    -0.18100
C3362       C  0.03257302  0.33246883  0.53180108    -0.20300
C3363       C  0.01950654  0.31811500  0.55554070     0.20400
C3364       C  0.01814577  0.32717887  0.58381018    -0.03200
C3365       C  0.02962809  0.35058001  0.58790033    -0.06300
C3366       C  0.04250677  0.36496131  0.56376004     0.20600
C3367       C  0.02795016  0.35956093  0.61602904     0.18800
C3368       C  0.01495977  0.34525743  0.63982456    -0.17800
C3369       C  0.00357774  0.32210024  0.63576199    -0.20000
C3370       C  0.00501042  0.31288845  0.60784353     0.20300
C3371       C  0.99309952  0.28967619  0.60331211    -0.33000
C3372       C  0.99383276  0.28055520  0.57488587     0.01000
C3373       C  0.00736282  0.29489073  0.55127176    -0.24300
C3374       C  0.05348525  0.38829858  0.56788463    -0.28900
C3375       C  0.05186508  0.39731483  0.59598611     0.06700
C3376       C  0.03908483  0.38271512  0.61987884    -0.27600
H3377       H  0.05379415  0.36640223  0.51712057     0.11400
H3378       H  0.03380252  0.32573395  0.50994848     0.12500
H3379       H  0.01350028  0.35199522  0.66155005     0.11600
H3380       H  0.99351638  0.31140052  0.65438050     0.10800
H3381       H  0.98257185  0.27879060  0.62149450     0.16200
H3382       H  0.00810845  0.28799544  0.52928597     0.12100
H3383       H  0.06321932  0.39936691  0.54935035     0.15000
H3384       H  0.03738101  0.38935134  0.64156237     0.14800
C3385       C  0.84306106  0.29618114  0.07796669    -0.18100
C3386       C  0.84824065  0.30514115  0.04831468    -0.20300
C3387       C  0.86361609  0.32792572  0.04383446     0.20400
C3388       C  0.87380555  0.34181728  0.06967016    -0.03200
C3389       C  0.86875803  0.33268349  0.09970247    -0.06300
C3390       C  0.85329110  0.30978063  0.10374236     0.20600
C3391       C  0.87914789  0.34642229  0.12560433     0.18800
C3392       C  0.89432004  0.36930027  0.12107959    -0.17800
C3393       C  0.89909976  0.37840951  0.09137349    -0.20000
C3394       C  0.88894605  0.36481185  0.06551502     0.20300
C3395       C  0.89349691  0.37380451  0.03562791    -0.33000
C3396       C  0.88345856  0.36006770  0.00965455     0.01000
C3397       C  0.86874817  0.33706083  0.01402556    -0.24300
C3398       C  0.84829382  0.30075167  0.13342953    -0.28900
C3399       C  0.85863986  0.31408493  0.15961682     0.06700
C3400       C  0.87415766  0.33702613  0.15542831    -0.27600
H3401       H  0.83108281  0.27853173  0.08073294     0.11400
H3402       H  0.84013926  0.29423373  0.02885896     0.12500
H3403       H  0.90245866  0.38018841  0.14053816     0.11600
H3404       H  0.91079201  0.39612968  0.08862359     0.10800
H3405       H  0.90492607  0.39156410  0.03254858     0.16200
H3406       H  0.86076319  0.32640882  0.99429013     0.12100
H3407       H  0.83635942  0.28306737  0.13602301     0.15000
H3408       H  0.88215975  0.34754685  0.17525848     0.14800
C3409       C  0.70833169  0.18242094  0.26400516    -0.18100
C3410       C  0.68855167  0.16516973  0.27658003    -0.20300
C3411       C  0.68657478  0.16149197  0.30841644     0.20400
C3412       C  0.70449622  0.17570006  0.32786895    -0.03200
C3413       C  0.72456609  0.19298611  0.31514397    -0.06300
C3414       C  0.72654277  0.19622132  0.28301822     0.20600
C3415       C  0.74289482  0.20648395  0.33446414     0.18800
C3416       C  0.74068200  0.20325393  0.36637675    -0.17800
C3417       C  0.72071921  0.18628752  0.37899742    -0.20000
C3418       C  0.70267085  0.17214367  0.35991603     0.20300
C3419       C  0.68321330  0.15398580  0.37218800    -0.33000
C3420       C  0.66567859  0.13904404  0.35278632     0.01000
C3421       C  0.66732250  0.14334382  0.32097051    -0.24300
C3422       C  0.74693089  0.21262334  0.27039469    -0.28900
C3423       C  0.76556142  0.22532067  0.28940219     0.06700
C3424       C  0.76331748  0.22242300  0.32145168    -0.27600
H3425       H  0.70955279  0.18465295  0.23931930     0.11400
H3426       H  0.67492145  0.15443508  0.26132317     0.12500
H3427       H  0.75454321  0.21358519  0.38155402     0.11600
H3428       H  0.71959344  0.18387858  0.40365313     0.10800
H3429       H  0.68220719  0.15090206  0.39670031     0.16200
H3430       H  0.65392177  0.13209510  0.30574923     0.12100
H3431       H  0.74865605  0.21467890  0.24568984     0.15000
H3432       H  0.77763682  0.23229192  0.33620172     0.14800
C3433       C  0.88181748  0.39885796  0.29283659    -0.18100
C3434       C  0.88502371  0.41864289  0.30602981    -0.20300
C3435       C  0.88030586  0.41930649  0.33718528     0.20400
C3436       C  0.87162184  0.39970541  0.35504411    -0.03200
C3437       C  0.86857069  0.37974546  0.34176620    -0.06300
C3438       C  0.87395839  0.37942946  0.31061263     0.20600
C3439       C  0.86088103  0.36036411  0.35990870     0.18800
C3440       C  0.85541393  0.36086194  0.39080278    -0.17800
C3441       C  0.85822250  0.38058653  0.40388297    -0.20000
C3442       C  0.86668586  0.40023018  0.38637384     0.20300
C3443       C  0.87100031  0.42052682  0.39981101    -0.33000
C3444       C  0.88065843  0.44035250  0.38240422     0.01000
C3445       C  0.88479315  0.43941131  0.35095593    -0.24300
C3446       C  0.87222609  0.35998618  0.29805096    -0.28900
C3447       C  0.86569424  0.34093434  0.31635832     0.06700
C3448       C  0.85956087  0.34111378  0.34713600    -0.27600
H3449       H  0.88597487  0.39889360  0.26887766     0.11400
H3450       H  0.89158720  0.43355137  0.29197837     0.12500
H3451       H  0.84934126  0.34608848  0.40502908     0.11600
H3452       H  0.85423820  0.38059881  0.42790282     0.10800
H3453       H  0.86777618  0.42108739  0.42402465     0.16200
H3454       H  0.89194345  0.45451929  0.33721228     0.12100
H3455       H  0.87706513  0.36009774  0.27438776     0.15000
H3456       H  0.85434204  0.32647561  0.36140433     0.14800
C3457       C  0.84945412  0.22780541  0.44579336    -0.18100
C3458       C  0.85732991  0.21937978  0.46873243    -0.20300
C3459       C  0.86805090  0.20751648  0.46093233     0.20400
C3460       C  0.86956468  0.20279846  0.42981724    -0.03200
C3461       C  0.86098554  0.21072606  0.40669057    -0.06300
C3462       C  0.85176305  0.22409531  0.41472708     0.20600
C3463       C  0.86304861  0.20660328  0.37549027     0.18800
C3464       C  0.87283162  0.19380406  0.36781430    -0.17800
C3465       C  0.88192279  0.18650644  0.39070514    -0.20000
C3466       C  0.88098577  0.19151447  0.42169076     0.20300
C3467       C  0.89239386  0.18673383  0.44448745    -0.33000
C3468       C  0.89172160  0.19238429  0.47527487     0.01000
C3469       C  0.87860737  0.20166863  0.48352433    -0.24300
C3470       C  0.84641145  0.23472630  0.39159928    -0.28900
C3471       C  0.84960289  0.23168141  0.36058161     0.06700
C3472       C  0.85677792  0.21668729  0.35257079    -0.27600
H3473       H  0.84219599  0.23782923  0.45233213     0.11400
H3474       H  0.85596724  0.22304555  0.49253141     0.12500
H3475       H  0.87440014  0.19033758  0.34399844     0.11600
H3476       H  0.89031598  0.17756809  0.38408229     0.10800
H3477       H  0.90243661  0.17943228  0.43822717     0.16200
H3478       H  0.87825016  0.20612909  0.50729127     0.12100
H3479       H  0.84079294  0.24623521  0.39771180     0.15000
H3480       H  0.85940650  0.21450060  0.32860414     0.14800
C3481       C  0.01265833  0.37610671  0.30363902    -0.18100
C3482       C  0.98949885  0.36511305  0.30785408    -0.20300
C3483       C  0.97488517  0.35659653  0.28258269     0.20400
C3484       C  0.98362656  0.35950225  0.25274753    -0.03200
C3485       C  0.00700631  0.37065569  0.24849591    -0.06300
C3486       C  0.02162484  0.37883329  0.27407080     0.20600
C3487       C  0.01570544  0.37322267  0.21868792     0.18800
C3488       C  0.00111649  0.36493714  0.19339222    -0.17800
C3489       C  0.97798132  0.35382668  0.19761655    -0.20000
C3490       C  0.96902329  0.35084910  0.22720466     0.20300
C3491       C  0.94576596  0.33884188  0.23173971    -0.33000
C3492       C  0.93691117  0.33523505  0.26154389     0.01000
C3493       C  0.95169021  0.34468856  0.28674245    -0.24300
C3494       C  0.04486901  0.38917298  0.26965557    -0.28900
C3495       C  0.05364670  0.39138555  0.23994545     0.06700
C3496       C  0.03882518  0.38362904  0.21462970    -0.27600
H3497       H  0.02354772  0.38226776  0.32354690     0.11400
H3498       H  0.98300117  0.36299780  0.33095766     0.12500
H3499       H  0.00760423  0.36680796  0.17031753     0.11600
H3500       H  0.96708834  0.34733172  0.17774823     0.10800
H3501       H  0.93464128  0.33166336  0.21219639     0.16200
H3502       H  0.94519622  0.34224226  0.30989479     0.12100
H3503       H  0.05602321  0.39505134  0.28932198     0.15000
H3504       H  0.04520192  0.38524151  0.19152425     0.14800
C3505       C  0.81144535  0.18815707  0.13144228    -0.18100
C3506       C  0.81079188  0.17023568  0.11571030    -0.20300
C3507       C  0.81681373  0.15607029  0.13060746     0.20400
C3508       C  0.82356849  0.16006828  0.16172553    -0.03200
C3509       C  0.82425577  0.17817694  0.17759989    -0.06300
C3510       C  0.81815355  0.19226477  0.16236229     0.20600
C3511       C  0.83109675  0.18219413  0.20867083     0.18800
C3512       C  0.83701585  0.16798593  0.22363685    -0.17800
C3513       C  0.83635802  0.15008140  0.20792562    -0.20000
C3514       C  0.82975596  0.14605610  0.17696936     0.20300
C3515       C  0.82943918  0.12837557  0.16096361    -0.33000
C3516       C  0.82294523  0.12431878  0.12982024     0.01000
C3517       C  0.81641877  0.13814486  0.11488989    -0.24300
C3518       C  0.81884074  0.21018872  0.17829219    -0.28900
C3519       C  0.82568456  0.21437841  0.20929877     0.06700
C3520       C  0.83186199  0.20029384  0.22425501    -0.27600
H3521       H  0.80672054  0.19883766  0.11938810     0.11400
H3522       H  0.80561385  0.16748392  0.09184352     0.12500
H3523       H  0.84222226  0.17075773  0.24749454     0.11600
H3524       H  0.84110772  0.13941783  0.21997544     0.10800
H3525       H  0.83436218  0.11777218  0.17283634     0.16200
H3526       H  0.81151778  0.13527079  0.09090899     0.12100
H3527       H  0.81409391  0.22093590  0.16644522     0.15000
H3528       H  0.83699422  0.20322724  0.24815101     0.14800
loop_ 
_geom_bond_atom_site_label_1 
_geom_bond_atom_site_label_2 
_geom_bond_distance 
_geom_bond_site_symmetry_2 
_ccdc_geom_bond_type 
O1           Ni7   1.928       .  S
O1           C22   1.274       .  A
O2          Ni25   1.907       .  S
O2           C11   1.265       .  A
O3           Ni7   1.905       .  S
O3          Ni25   1.910       .  S
O3          Ni19   1.930       .  S
O3           H26   0.966       .  S
C4           O21   1.284       .  A
C4           O13   1.279       .  A
C4         C3492   1.488       .  S
O5          Ni24   1.937       .  S
O5           C11   1.272       .  A
O6          Ni24   1.909       .  S
O6            C8   1.268       .  A
Ni7          O10   1.932       .  S
Ni7          O12   1.909       .  S
C8           O18   1.275       .  A
C8         C3447   1.486       .  S
O9          Ni25   1.911       .  S
O9           C15   1.272       .  A
O10          C15   1.277       .  A
C11        C3471   1.474       .  S
O12          C14   1.269       .  A
O13         Ni24   1.927       .  S
C14          O20   1.274       .  A
C14        C3519   1.486       .  S
C15        C3423   1.479       .  S
H16          O17   0.967       .  S
O17         Ni25   1.894       .  S
O17         Ni19   1.905       .  S
O17         Ni24   1.901       .  S
O18         Ni19   1.941       .  S
Ni19         O23   1.936       .  S
Ni19         O21   1.929       .  S
O20         Ni25   1.930       .  S
C22          O23   1.277       .  A
C22        C3399   1.498       .  S
O27         Ni33   1.923       .  S
O27          C48   1.273       .  A
O28         Ni51   1.899       .  S
O28          C37   1.266       .  A
O29         Ni33   1.902       .  S
O29         Ni51   1.902       .  S
O29         Ni45   1.923       .  S
O29          H52   0.966       .  S
C30          O47   1.282       .  A
C30          O39   1.282       .  A
C30        C3372   1.479       .  S
O31         Ni50   1.945       .  S
O31          C37   1.275       .  A
O32         Ni50   1.911       .  S
O32          C34   1.269       .  A
Ni33         O36   1.928       .  S
Ni33         O38   1.908       .  S
C34          O44   1.277       .  A
C34        C3324   1.487   1_655  S
O35         Ni51   1.910       .  S
O35          C41   1.273       .  A
O36          C41   1.277       .  A
C37        C3468   1.471       .  S
O38          C40   1.269       .  A
O39         Ni50   1.936       .  S
C40          O46   1.274       .  A
C40        C3348   1.487       .  S
C41        C3303   1.474       .  S
H42          O43   0.967       .  S
O43         Ni51   1.890       .  S
O43         Ni45   1.898       .  S
O43         Ni50   1.896       .  S
O44         Ni45   1.948       .  S
Ni45         O49   1.933       .  S
Ni45         O47   1.915       .  S
O46         Ni51   1.934       .  S
C48          O49   1.277       .  A
C48        C3276   1.493       .  S
O53         Ni59   1.936       .  S
O53          C74   1.275       .  A
O54         Ni77   1.907       .  S
O54          C63   1.267       .  A
O55         Ni59   1.899       .  S
O55         Ni77   1.904       .  S
O55         Ni71   1.928       .  S
O55          H78   0.966       .  S
C56          O73   1.286       .  A
C56          O65   1.280       .  A
C56        C3207   1.496       .  S
O57         Ni76   1.937       .  S
O57          C63   1.272       .  A
O58         Ni76   1.907       .  S
O58          C60   1.268       .  A
Ni59         O62   1.936       .  S
Ni59         O64   1.900       .  S
C60          O70   1.275       .  A
C60        C3183   1.483       .  S
O61         Ni77   1.921       .  S
O61          C67   1.276       .  A
O62          C67   1.280       .  A
C63        C3228   1.475       .  S
O64          C66   1.268       .  A
O65         Ni76   1.932       .  S
C66          O72   1.275       .  A
C66        C3252   1.484       .  S
C67        C3156   1.485       .  S
H68          O69   0.967       .  S
O69         Ni77   1.900       .  S
O69         Ni71   1.905       .  S
O69         Ni76   1.899       .  S
O70         Ni71   1.942       .  S
Ni71         O75   1.932       .  S
Ni71         O73   1.937       .  S
O72         Ni77   1.934       .  S
C74          O75   1.278       .  A
C74        C3396   1.492   1_556  S
O79         Ni85   1.941       .  S
O79         C100   1.275       .  A
O80        Ni103   1.913       .  S
O80          C89   1.267       .  A
O81         Ni85   1.911       .  S
O81        Ni103   1.914       .  S
O81         Ni97   1.929       .  S
O81         H104   0.966       .  S
C82          O99   1.283       .  A
C82          O91   1.280       .  A
C82        C3375   1.483       .  S
O83        Ni102   1.931       .  S
O83          C89   1.269       .  A
O84        Ni102   1.905       .  S
O84          C86   1.267       .  A
Ni85         O88   1.940       .  S
Ni85         O90   1.902       .  S
C86          O96   1.275       .  A
C86        C3111   1.487       .  S
O87        Ni103   1.905       .  S
O87          C93   1.271       .  A
O88          C93   1.279       .  A
C89        C3231   1.473       .  S
O90          C92   1.268       .  A
O91        Ni102   1.922       .  S
C92          O98   1.274       .  A
C92        C3132   1.482       .  S
C93        C3084   1.481       .  S
H94          O95   0.967       .  S
O95        Ni103   1.888       .  S
O95         Ni97   1.899       .  S
O95        Ni102   1.896       .  S
O96         Ni97   1.944       .  S
Ni97        O101   1.922       .  S
Ni97         O99   1.926       .  S
O98        Ni103   1.929       .  S
C100        O101   1.274       .  A
C100       C3060   1.490       .  S
O105       Ni111   1.932       .  S
O105        C126   1.275       .  A
O106       Ni129   1.896       .  S
O106        C115   1.265   1_556  A
O107       Ni111   1.907       .  S
O107       Ni129   1.903       .  S
O107       Ni123   1.930       .  S
O107        H130   0.966       .  S
C108        O125   1.285       .  A
C108        O117   1.282       .  A
C108       C3204   1.492   1_455  S
O109       Ni128   1.939   1_554  S
O109        C115   1.273       .  A
O110       Ni128   1.910       .  S
O110        C112   1.269       .  A
Ni111       O114   1.940       .  S
Ni111       O116   1.910       .  S
C112        O122   1.277       .  A
C112       C2988   1.489   1_455  S
O113       Ni129   1.915       .  S
O113        C119   1.274       .  A
O114        C119   1.279       .  A
C115       C3012   1.467       .  S
O116        C118   1.270       .  A
O117       Ni128   1.934       .  S
C118        O124   1.274       .  A
C118       C3039   1.491       .  S
C119       C2967   1.490       .  S
H120        O121   0.967       .  S
O121       Ni129   1.895       .  S
O121       Ni123   1.894       .  S
O121       Ni128   1.896       .  S
O122       Ni123   1.945       .  S
Ni123       O127   1.921       .  S
Ni123       O125   1.932       .  S
O124       Ni129   1.935       .  S
C126        O127   1.274       .  A
C126       C3279   1.482       .  S
O131       Ni137   1.938       .  S
O131        C152   1.277       .  A
O132       Ni155   1.902       .  S
O132        C141   1.266       .  A
O133       Ni137   1.902       .  S
O133       Ni155   1.903       .  S
O133       Ni149   1.927       .  S
O133        H156   0.966       .  S
C134        O151   1.284       .  A
C134        O143   1.280       .  A
C134       C3495   1.489       .  S
O135       Ni154   1.934       .  S
O135        C141   1.271       .  A
O136       Ni154   1.906       .  S
O136        C138   1.268       .  A
Ni137       O140   1.942       .  S
Ni137       O142   1.913       .  S
C138        O148   1.279       .  A
C138       C2916   1.497       .  S
O139       Ni155   1.908       .  S
O139        C145   1.273       .  A
O140        C145   1.280       .  A
C141       C3015   1.469       .  S
O142        C144   1.270       .  A
O143       Ni154   1.925       .  S
C144        O150   1.276       .  A
C144       C2940   1.498       .  S
C145       C2892   1.486       .  S
H146        O147   0.966       .  S
O147       Ni155   1.895       .  S
O147       Ni149   1.900       .  S
O147       Ni154   1.896       .  S
O148       Ni149   1.958       .  S
Ni149       O153   1.924       .  S
Ni149       O151   1.931       .  S
O150       Ni155   1.945       .  S
C152        O153   1.276       .  A
C152       C3063   1.494       .  S
O157       Ni163   1.934       .  S
O157        C178   1.270       .  A
O158       Ni181   1.934       .  S
O158        C167   1.279       .  A
O159       Ni163   1.898       .  S
O159       Ni181   1.901       .  S
O159       Ni175   1.896       .  S
O159        H182   0.967       .  S
C160        O177   1.273       .  A
C160        O169   1.280       .  A
C160       C2796   1.491       .  S
O161       Ni180   1.935       .  S
O161        C167   1.276       .  A
O162       Ni180   1.909       .  S
O162        C164   1.269       .  A
Ni163       O166   1.928       .  S
Ni163       O168   1.904       .  S
C164        O174   1.272       .  A
C164       C2868   1.483       .  S
O165       Ni181   1.935       .  S
O165        C171   1.286       .  A
O166        C171   1.280       .  A
C167       C2772   1.495       .  S
O168        C170   1.268       .  A
O169       Ni180   1.943       .  S
C170        O176   1.276       .  A
C170       C3087   1.486       .  S
C171       C2823   1.493       .  S
H172        O173   0.966       .  S
O173       Ni181   1.930       .  S
O173       Ni175   1.904       .  S
O173       Ni180   1.903       .  S
O174       Ni175   1.927       .  S
Ni175       O179   1.894       .  S
Ni175       O177   1.916       .  S
O176       Ni181   1.943       .  S
C178        O179   1.262       .  A
C178       C2844   1.461       .  S
O183       Ni189   1.933       .  S
O183        C204   1.271       .  A
O184       Ni207   1.919       .  S
O184        C193   1.277       .  A
O185       Ni189   1.893       .  S
O185       Ni207   1.894       .  S
O185       Ni201   1.896       .  S
O185        H208   0.966       .  S
C186        O203   1.274       .  A
C186        O195   1.278       .  A
C186       C2676   1.484       .  S
O187       Ni206   1.929       .  S
O187        C193   1.275       .  A
O188       Ni206   1.909       .  S
O188        C190   1.270       .  A
Ni189       O192   1.931       .  S
Ni189       O194   1.900       .  S
C190        O200   1.275       .  A
C190       C2727   1.491       .  S
O191       Ni207   1.937       .  S
O191        C197   1.286       .  A
O192        C197   1.281       .  A
C193       C2652   1.487       .  S
O194        C196   1.267       .  A
O195       Ni206   1.936       .  S
C196        O202   1.278       .  A
C196       C2700   1.492   1_455  S
C197       C2748   1.492   1_455  S
H198        O199   0.966       .  S
O199       Ni207   1.927       .  S
O199       Ni201   1.896       .  S
O199       Ni206   1.898       .  S
O200       Ni201   1.938       .  S
Ni201       O205   1.893       .  S
Ni201       O203   1.911       .  S
O202       Ni207   1.955       .  S
C204        O205   1.265       .  A
C204       C2847   1.464       .  S
O209       Ni215   1.928       .  S
O209        C230   1.270       .  A
O210       Ni233   1.920       .  S
O210        C219   1.274       .  A
O211       Ni215   1.899       .  S
O211       Ni233   1.898       .  S
O211       Ni227   1.902       .  S
O211        H234   0.966       .  S
C212        O229   1.275       .  A
C212        O221   1.280       .  A
C212       C2583   1.496       .  S
O213       Ni232   1.941       .  S
O213        C219   1.277       .  A
O214       Ni232   1.912       .  S
O214        C216   1.270       .  A
Ni215       O218   1.924       .  S
Ni215       O220   1.905       .  S
C216        O226   1.277       .  A
C216       C2604   1.496       .  S
O217       Ni233   1.938       .  S
O217        C223   1.285       .  A
O218        C223   1.280       .  A
C219       C2556   1.492       .  S
O220        C222   1.268       .  A
O221       Ni232   1.946       .  S
C222        O228   1.277       .  A
C222       C3159   1.493       .  S
C223       C2820   1.491       .  S
H224        O225   0.966       .  S
O225       Ni233   1.932       .  S
O225       Ni227   1.910       .  S
O225       Ni232   1.908       .  S
O226       Ni227   1.944       .  S
Ni227       O231   1.911       .  S
Ni227       O229   1.921       .  S
O228       Ni233   1.950       .  S
C230        O231   1.268       .  A
C230       C2628   1.474       .  S
O235       Ni241   1.926   1_556  S
O235        C256   1.268       .  A
O236       Ni259   1.922       .  S
O236        C245   1.274       .  A
O237       Ni241   1.896       .  S
O237       Ni259   1.897       .  S
O237       Ni253   1.895       .  S
O237        H260   0.967       .  S
C238        O255   1.273       .  A
C238        O247   1.277       .  A
C238       C2463   1.480       .  S
O239       Ni258   1.931       .  S
O239        C245   1.275       .  A
O240       Ni258   1.910       .  S
O240        C242   1.270       .  A
Ni241       O244   1.922       .  S
Ni241       O246   1.907       .  S
C242        O252   1.275       .  A
C242       C2508   1.489       .  S
O243       Ni259   1.942       .  S
O243        C249   1.288       .  A
O244        C249   1.280       .  A
C245       C2655   1.481       .  S
O246        C248   1.267       .  A
O247       Ni258   1.934       .  S
C248        O254   1.273       .  A
C248       C2487   1.484   1_655  S
C249       C2532   1.495       .  S
H250        O251   0.966       .  S
O251       Ni259   1.935       .  S
O251       Ni253   1.909       .  S
O251       Ni258   1.908       .  S
O252       Ni253   1.933       .  S
Ni253       O257   1.910       .  S
Ni253       O255   1.912       .  S
O254       Ni259   1.939       .  S
C256        O257   1.266   1_556  A
C256       C2631   1.468       .  S
O261       Ni267   1.940       .  S
O261        C282   1.272       .  A
O262       Ni285   1.936       .  S
O262        C271   1.279       .  A
O263       Ni267   1.897       .  S
O263       Ni285   1.898       .  S
O263       Ni279   1.892       .  S
O263        H286   0.967       .  S
C264        O281   1.270       .  A
C264        O273   1.278       .  A
C264       C2919   1.493       .  S
O265       Ni284   1.933       .  S
O265        C271   1.275       .  A
O266       Ni284   1.905       .  S
O266        C268   1.269       .  A
Ni267       O270   1.929       .  S
Ni267       O272   1.905       .  S
C268        O278   1.274       .  A
C268       C3255   1.484       .  S
O269       Ni285   1.940       .  S
O269        C275   1.288       .  A
O270        C275   1.281       .  A
C271       C2775   1.499   1_554  S
O272        C274   1.268       .  A
O273       Ni284   1.945       .  S
C274        O280   1.277       .  A
C274       C2412   1.483       .  S
C275       C2535   1.493       .  S
H276        O277   0.966       .  S
O277       Ni285   1.941       .  S
O277       Ni279   1.912       .  S
O277       Ni284   1.915       .  S
O278       Ni279   1.929       .  S
Ni279       O283   1.899       .  S
Ni279       O281   1.912       .  S
O280       Ni285   1.944       .  S
C282        O283   1.264       .  A
C282       C2436   1.466       .  S
O287       Ni293   1.933       .  S
O287        C308   1.272       .  A
O288       Ni311   1.932       .  S
O288        C297   1.278       .  A
O289       Ni293   1.894       .  S
O289       Ni311   1.903       .  S
O289       Ni305   1.895       .  S
O289        H312   0.966       .  S
C290        O307   1.273       .  A
C290        O299   1.279       .  A
C290       C3444   1.486       .  S
O291       Ni310   1.933       .  S
O291        C297   1.276       .  A
O292       Ni310   1.909       .  S
O292        C294   1.270       .  A
Ni293       O296   1.923       .  S
Ni293       O298   1.908       .  S
C294        O304   1.273       .  A
C294       C3135   1.485       .  S
O295       Ni311   1.945       .  S
O295        C301   1.287       .  A
O296        C301   1.280       .  A
C297       C2559   1.495       .  S
O298        C300   1.268       .  A
O299       Ni310   1.941       .  S
C300        O306   1.278       .  A
C300       C2388   1.495       .  S
C301       C2751   1.498       .  S
H302        O303   0.966       .  S
O303       Ni311   1.931       .  S
O303       Ni305   1.905       .  S
O303       Ni310   1.903       .  S
O304       Ni305   1.929       .  S
Ni305       O309   1.908       .  S
Ni305       O307   1.910       .  S
O306       Ni311   1.949       .  S
C308        O309   1.265       .  A
C308       C2439   1.475       .  S
O313       Ni319   1.933       .  S
O313        C334   1.275       .  A
O314       Ni337   1.909       .  S
O314        C323   1.265       .  A
O315       Ni319   1.910       .  S
O315       Ni337   1.909       .  S
O315       Ni331   1.937       .  S
O315        H338   0.966       .  S
C316        O333   1.287       .  A
C316        O325   1.279       .  A
C316       C2364   1.493       .  S
O317       Ni336   1.927       .  S
O317        C323   1.269       .  A
O318       Ni336   1.903       .  S
O318        C320   1.268       .  A
Ni319       O322   1.940       .  S
Ni319       O324   1.911       .  S
C320        O330   1.277       .  A
C320       C2319   1.492       .  S
O321       Ni337   1.921       .  S
O321        C327   1.275       .  A
O322        C327   1.278       .  A
C323       C2340   1.468       .  S
O324        C326   1.269       .  A
O325       Ni336   1.916       .  S
C326        O332   1.274       .  A
C326       C2511   1.490       .  S
C327       C2391   1.490       .  S
H328        O329   0.967       .  S
O329       Ni337   1.900       .  S
O329       Ni331   1.900       .  S
O329       Ni336   1.895       .  S
O330       Ni331   1.949       .  S
Ni331       O335   1.929       .  S
Ni331       O333   1.944       .  S
O332       Ni337   1.935       .  S
C334        O335   1.277       .  A
C334       C2292   1.490       .  S
O339       Ni345   1.943       .  S
O339        C360   1.278       .  A
O340       Ni363   1.900       .  S
O340        C349   1.264       .  A
O341       Ni345   1.903       .  S
O341       Ni363   1.902       .  S
O341       Ni357   1.929       .  S
O341        H364   0.966       .  S
C342        O359   1.287       .  A
C342        O351   1.281       .  A
C342       C2268   1.492       .  S
O343       Ni362   1.935       .  S
O343        C349   1.271       .  A
O344       Ni362   1.912       .  S
O344        C346   1.269       .  A
Ni345       O348   1.947       .  S
Ni345       O350   1.914       .  S
C346        O356   1.277       .  A
C346       C2244   1.492       .  S
O347       Ni363   1.909       .  S
O347        C353   1.272       .  A
O348        C353   1.281       .  A
C349       C2343   1.467       .  S
O350        C352   1.270       .  A
O351       Ni362   1.928       .  S
C352        O358   1.277       .  A
C352       C2607   1.495       .  S
C353       C2703   1.486       .  S
H354        O355   0.967       .  S
O355       Ni363   1.896       .  S
O355       Ni357   1.898       .  S
O355       Ni362   1.900       .  S
O356       Ni357   1.950       .  S
Ni357       O361   1.929       .  S
Ni357       O359   1.934       .  S
O358       Ni363   1.941       .  S
C360        O361   1.279       .  A
C360       C2220   1.495       .  S
O365       Ni371   1.949       .  S
O365        C386   1.280       .  A
O366       Ni389   1.899       .  S
O366        C375   1.263   1_556  A
O367       Ni371   1.911       .  S
O367       Ni389   1.909       .  S
O367       Ni383   1.935       .  S
O367        H390   0.966       .  S
C368        O385   1.284       .  A
C368        O377   1.279       .  A
C368       C2148   1.491       .  S
O369       Ni388   1.933   1_554  S
O369        C375   1.269       .  A
O370       Ni388   1.900       .  S
O370        C372   1.267       .  A
Ni371       O374   1.956       .  S
Ni371       O376   1.907       .  S
C372        O382   1.274       .  A
C372       C2460   1.485       .  S
O373       Ni389   1.900       .  S
O373        C379   1.269       .  A
O374        C379   1.282       .  A
C375       C2172   1.465       .  S
O376        C378   1.270       .  A
O377       Ni388   1.925       .  S
C378        O384   1.275       .  A
C378       C2196   1.488       .  S
C379       C2127   1.495       .  S
H380        O381   0.966       .  S
O381       Ni389   1.893       .  S
O381       Ni383   1.901       .  S
O381       Ni388   1.902       .  S
O382       Ni383   1.942       .  S
Ni383       O387   1.922       .  S
Ni383       O385   1.935       .  S
O384       Ni389   1.931       .  S
C386        O387   1.274       .  A
C386       C2223   1.498       .  S
O391       Ni397   1.933       .  S
O391        C412   1.276       .  A
O392       Ni415   1.901       .  S
O392        C401   1.265       .  A
O393       Ni397   1.902       .  S
O393       Ni415   1.905       .  S
O393       Ni409   1.932       .  S
O393        H416   0.966       .  S
C394        O411   1.287       .  A
C394        O403   1.281       .  A
C394       C2367   1.487       .  S
O395       Ni414   1.930       .  S
O395        C401   1.270       .  A
O396       Ni414   1.909       .  S
O396        C398   1.268       .  A
Ni397       O400   1.940       .  S
Ni397       O402   1.909       .  S
C398        O408   1.276       .  A
C398       C2052   1.491       .  S
O399       Ni415   1.909       .  S
O399        C405   1.272       .  A
O400        C405   1.279       .  A
C401       C2175   1.465       .  S
O402        C404   1.270       .  A
O403       Ni414   1.925       .  S
C404        O410   1.276       .  A
C404       C2100   1.492       .  S
C405       C2079   1.484       .  S
H406        O407   0.967       .  S
O407       Ni415   1.894       .  S
O407       Ni409   1.895       .  S
O407       Ni414   1.898       .  S
O408       Ni409   1.944       .  S
Ni409       O413   1.934       .  S
Ni409       O411   1.933       .  S
O410       Ni415   1.939       .  S
C412        O413   1.278       .  A
C412       C2031   1.497       .  S
O417       Ni423   1.944       .  S
O417        C438   1.277       .  A
O418       Ni441   1.903       .  S
O418        C427   1.265       .  A
O419       Ni423   1.910       .  S
O419       Ni441   1.908       .  S
O419       Ni435   1.926       .  S
O419        H442   0.966       .  S
C420        O437   1.283       .  A
C420        O429   1.280       .  A
C420       C2271   1.491       .  S
O421       Ni440   1.943       .  S
O421        C427   1.274       .  A
O422       Ni440   1.911       .  S
O422        C424   1.269       .  A
Ni423       O426   1.946       .  S
Ni423       O428   1.915       .  S
C424        O434   1.279       .  A
C424       C1956   1.493       .  S
O425       Ni441   1.912       .  S
O425        C431   1.274       .  A
O426        C431   1.281       .  A
C427       C2004   1.474       .  S
O428        C430   1.270       .  A
O429       Ni440   1.932       .  S
C430        O436   1.274       .  A
C430       C1983   1.492       .  S
C431       C1935   1.493       .  S
H432        O433   0.967       .  S
O433       Ni441   1.895       .  S
O433       Ni435   1.904       .  S
O433       Ni440   1.900       .  S
O434       Ni435   1.957       .  S
Ni435       O439   1.928       .  S
Ni435       O437   1.929       .  S
O436       Ni441   1.933       .  S
C438        O439   1.277       .  A
C438       C2028   1.496       .  S
O443       Ni449   1.926       .  S
O443        C464   1.274       .  A
O444       Ni467   1.903       .  S
O444        C453   1.266       .  A
O445       Ni449   1.900       .  S
O445       Ni467   1.903       .  S
O445       Ni461   1.927       .  S
O445        H468   0.966       .  S
C446        O463   1.287       .  A
C446        O455   1.282       .  A
C446       C2151   1.493       .  S
O447       Ni466   1.941       .  S
O447        C453   1.273       .  A
O448       Ni466   1.914       .  S
O448        C450   1.270       .  A
Ni449       O452   1.935       .  S
Ni449       O454   1.907       .  S
C450        O460   1.278       .  A
C450       C2580   1.496       .  S
O451       Ni467   1.907       .  S
O451        C457   1.273       .  A
O452        C457   1.278       .  A
C453       C2007   1.474       .  S
O454        C456   1.269       .  A
O455       Ni466   1.930       .  S
C456        O462   1.276       .  A
C456       C1908   1.487       .  S
C457       C1884   1.480       .  S
H458        O459   0.967       .  S
O459       Ni467   1.893       .  S
O459       Ni461   1.901       .  S
O459       Ni466   1.897       .  S
O460       Ni461   1.951       .  S
Ni461       O465   1.936       .  S
Ni461       O463   1.933       .  S
O462       Ni467   1.939       .  S
C464        O465   1.280       .  A
C464       C2295   1.494   1_556  S
O469       Ni475   1.925       .  S
O469        C490   1.266       .  A
O470       Ni493   1.925       .  S
O470        C479   1.276       .  A
O471       Ni475   1.899       .  S
O471       Ni493   1.897       .  S
O471       Ni487   1.895       .  S
O471        H494   0.967       .  S
C472        O489   1.269       .  A
C472        O481   1.279       .  A
C472       C2316   1.491       .  S
O473       Ni492   1.937       .  S
O473        C479   1.278       .  A
O474       Ni492   1.910       .  S
O474        C476   1.271       .  A
Ni475       O478   1.920       .  S
Ni475       O480   1.902       .  S
C476        O486   1.278       .  A
C476       C1980   1.494       .  S
O477       Ni493   1.952       .  S
O477        C483   1.290       .  A
O478        C483   1.280       .  A
C479       C1788   1.495       .  S
O480        C482   1.266       .  A
O481       Ni492   1.949       .  S
C482        O488   1.274       .  A
C482       C1815   1.483       .  S
C483       C1863   1.500       .  S
H484        O485   0.966       .  S
O485       Ni493   1.944       .  S
O485       Ni487   1.910       .  S
O485       Ni492   1.909       .  S
O486       Ni487   1.941       .  S
Ni487       O491   1.900       .  S
Ni487       O489   1.905       .  S
O488       Ni493   1.941       .  S
C490        O491   1.264       .  A
C490       C1839   1.460       .  S
O495       Ni501   1.923       .  S
O495        C516   1.269       .  A
O496       Ni519   1.926       .  S
O496        C505   1.276       .  A
O497       Ni501   1.897       .  S
O497       Ni519   1.896       .  S
O497       Ni513   1.901       .  S
O497        H520   0.967       .  S
C498        O515   1.275       .  A
C498        O507   1.279       .  A
C498       C2055   1.486       .  S
O499       Ni518   1.932       .  S
O499        C505   1.274       .  A
O500       Ni518   1.902       .  S
O500        C502   1.268       .  A
Ni501       O504   1.927       .  S
Ni501       O506   1.905       .  S
C502        O512   1.276       .  A
C502       C1911   1.483       .  S
O503       Ni519   1.941       .  S
O503        C509   1.288       .  A
O504        C509   1.280       .  A
C505       C1743   1.486   1_554  S
O506        C508   1.266       .  A
O507       Ni518   1.937       .  S
C508        O514   1.274       .  A
C508       C2895   1.484       .  S
C509       C1767   1.496       .  S
H510        O511   0.966       .  S
O511       Ni519   1.933       .  S
O511       Ni513   1.904       .  S
O511       Ni518   1.900       .  S
O512       Ni513   1.936       .  S
Ni513       O517   1.906       .  S
Ni513       O515   1.919       .  S
O514       Ni519   1.939       .  S
C516        O517   1.266       .  A
C516       C1836   1.468       .  S
O521       Ni527   1.938       .  S
O521        C542   1.273       .  A
O522       Ni545   1.931       .  S
O522        C531   1.278       .  A
O523       Ni527   1.898       .  S
O523       Ni545   1.898       .  S
O523       Ni539   1.897       .  S
O523        H546   0.966       .  S
C524        O541   1.273       .  A
C524        O533   1.278       .  A
C524       C3327   1.492       .  S
O525       Ni544   1.930       .  S
O525        C531   1.275       .  A
O526       Ni544   1.911       .  S
O526        C528   1.270       .  A
Ni527       O530   1.928       .  S
Ni527       O532   1.908       .  S
C528        O538   1.279       .  A
C528       C2943   1.495       .  S
O529       Ni545   1.942       .  S
O529        C535   1.288       .  A
O530        C535   1.281       .  A
C531       C1668   1.494       .  S
O532        C534   1.269       .  A
O533       Ni544   1.940       .  S
C534        O540   1.276       .  A
C534       C1692   1.491       .  S
C535       C1860   1.494       .  S
H536        O537   0.966       .  S
O537       Ni545   1.935       .  S
O537       Ni539   1.905       .  S
O537       Ni544   1.904       .  S
O538       Ni539   1.943       .  S
Ni539       O543   1.908       .  S
Ni539       O541   1.915       .  S
O540       Ni545   1.945       .  S
C542        O543   1.268       .  A
C542       C1716   1.476       .  S
O547       Ni553   1.933       .  S
O547        C568   1.270       .  A
O548       Ni571   1.928       .  S
O548        C557   1.277       .  A
O549       Ni553   1.898       .  S
O549       Ni571   1.900       .  S
O549       Ni565   1.895       .  S
O549        H572   0.967       .  S
C550        O567   1.273       .  A
C550        O559   1.279       .  A
C550       C3108   1.487       .  S
O551       Ni570   1.936       .  S
O551        C557   1.277       .  A
O552       Ni570   1.915       .  S
O552        C554   1.271       .  A
Ni553       O556   1.926       .  S
Ni553       O558   1.912       .  S
C554        O564   1.276       .  A
C554       C3036   1.494       .  S
O555       Ni571   1.944       .  S
O555        C561   1.288       .  A
O556        C561   1.281       .  A
C557       C1740   1.494       .  S
O558        C560   1.268       .  A
O559       Ni570   1.942       .  S
C560        O566   1.275       .  A
C560       C1932   1.489       .  S
C561       C1644   1.499       .  S
H562        O563   0.966       .  S
O563       Ni571   1.934       .  S
O563       Ni565   1.908       .  S
O563       Ni570   1.905       .  S
O564       Ni565   1.937       .  S
Ni565       O569   1.909       .  S
Ni565       O567   1.912       .  S
O566       Ni571   1.946       .  S
C568        O569   1.266       .  A
C568       C1719   1.471       .  S
O573       Ni579   1.936   1_556  S
O573        C594   1.271   1_556  A
O574       Ni597   1.926       .  S
O574        C583   1.276       .  A
O575       Ni579   1.895       .  S
O575       Ni597   1.895       .  S
O575       Ni591   1.892       .  S
O575        H598   0.967       .  S
C576        O593   1.271       .  A
C576        O585   1.279       .  A
C576       C1575   1.489       .  S
O577       Ni596   1.934       .  S
O577        C583   1.276       .  A
O578       Ni596   1.909       .  S
O578        C580   1.270       .  A
Ni579       O582   1.928       .  S
Ni579       O584   1.906       .  S
C580        O590   1.273       .  A
C580       C1620   1.487       .  S
O581       Ni597   1.939       .  S
O581        C587   1.287       .  A
O582        C587   1.281       .  A
C583       C1671   1.489       .  S
O584        C586   1.267       .  A
O585       Ni596   1.944       .  S
C586        O592   1.276       .  A
C586       C2964   1.486       .  S
C587       C1764   1.493       .  S
H588        O589   0.966       .  S
O589       Ni597   1.936       .  S
O589       Ni591   1.906       .  S
O589       Ni596   1.912       .  S
O590       Ni591   1.930       .  S
Ni591       O595   1.895       .  S
Ni591       O593   1.909       .  S
O592       Ni597   1.945       .  S
C594        O595   1.263       .  A
C594       C1596   1.464   1_554  S
O599       Ni605   1.933       .  S
O599        C620   1.271       .  A
O600       Ni623   1.929       .  S
O600        C609   1.278       .  A
O601       Ni605   1.896       .  S
O601       Ni623   1.899       .  S
O601       Ni617   1.899       .  S
O601        H624   0.966       .  S
C602        O619   1.276       .  A
C602        O611   1.280       .  A
C602       C1524   1.491       .  S
O603       Ni622   1.936       .  S
O603        C609   1.275       .  A
O604       Ni622   1.906       .  S
O604        C606   1.269       .  A
Ni605       O608   1.931       .  S
Ni605       O610   1.903       .  S
C606        O616   1.276       .  A
C606       C1551   1.489       .  S
O607       Ni623   1.942       .  S
O607        C613   1.288       .  A
O608        C613   1.280       .  A
C609       C1791   1.488       .  S
O610        C612   1.267       .  A
O611       Ni622   1.937       .  S
C612        O618   1.276       .  A
C612       C1887   1.485       .  S
C613       C1647   1.497       .  S
H614        O615   0.966       .  S
O615       Ni623   1.929       .  S
O615       Ni617   1.900       .  S
O615       Ni622   1.898       .  S
O616       Ni617   1.938       .  S
Ni617       O621   1.901       .  S
Ni617       O619   1.923       .  S
O618       Ni623   1.945       .  S
C620        O621   1.266       .  A
C620       C1599   1.466       .  S
O625       Ni631   1.930       .  S
O625        C646   1.270       .  A
O626       Ni649   1.922       .  S
O626        C635   1.276       .  A
O627       Ni631   1.896       .  S
O627       Ni649   1.899       .  S
O627       Ni643   1.903       .  S
O627        H650   0.966       .  S
C628        O645   1.275       .  A
C628        O637   1.279       .  A
C628       C1428   1.487       .  S
O629       Ni648   1.931       .  S
O629        C635   1.275       .  A
O630       Ni648   1.910       .  S
O630        C632   1.269       .  A
Ni631       O634   1.924       .  S
Ni631       O636   1.904       .  S
C632        O642   1.278       .  A
C632       C1500   1.495       .  S
O633       Ni649   1.949       .  S
O633        C639   1.289       .  A
O634        C639   1.280       .  A
C635       C1404   1.485   1_554  S
O636        C638   1.267       .  A
O637       Ni648   1.939       .  S
C638        O644   1.276       .  A
C638       C2076   1.488       .  S
C639       C1479   1.500       .  S
H640        O641   0.966       .  S
O641       Ni649   1.934       .  S
O641       Ni643   1.899       .  S
O641       Ni648   1.902       .  S
O642       Ni643   1.943       .  S
Ni643       O647   1.904       .  S
Ni643       O645   1.917       .  S
O644       Ni649   1.944       .  S
C646        O647   1.266       .  A
C646       C1452   1.469       .  S
O651       Ni657   1.934       .  S
O651        C672   1.271       .  A
O652       Ni675   1.925       .  S
O652        C661   1.277       .  A
O653       Ni657   1.899       .  S
O653       Ni675   1.900       .  S
O653       Ni669   1.897       .  S
O653        H676   0.967       .  S
C654        O671   1.274       .  A
C654        O663   1.278       .  A
C654       C1335   1.487       .  S
O655       Ni674   1.931       .  S
O655        C661   1.276       .  A
O656       Ni674   1.917       .  S
O656        C658   1.271       .  A
Ni657       O660   1.924       .  S
Ni657       O662   1.908       .  S
C658        O668   1.274       .  A
C658       C1356   1.495       .  S
O659       Ni675   1.938       .  S
O659        C665   1.286       .  A
O660        C665   1.279       .  A
C661       C1308   1.493       .  S
O662        C664   1.269       .  A
O663       Ni674   1.936       .  S
C664        O670   1.275       .  A
C664       C3420   1.489       .  S
C665       C1383   1.493       .  S
H666        O667   0.966       .  S
O667       Ni675   1.930       .  S
O667       Ni669   1.904       .  S
O667       Ni674   1.903       .  S
O668       Ni669   1.934       .  S
Ni669       O673   1.896       .  S
Ni669       O671   1.917       .  S
O670       Ni675   1.944       .  S
C672        O673   1.263       .  A
C672       C1455   1.463       .  S
O677       Ni683   1.936   1_556  S
O677        C698   1.273   1_556  A
O678       Ni701   1.923       .  S
O678        C687   1.276       .  A
O679       Ni683   1.897       .  S
O679       Ni701   1.897       .  S
O679       Ni695   1.901       .  S
O679        H702   0.967       .  S
C680        O697   1.276       .  A
C680        O689   1.279       .  A
C680       C2991   1.487       .  S
O681       Ni700   1.929       .  S
O681        C687   1.274       .  A
O682       Ni700   1.907       .  S
O682        C684   1.269       .  A
Ni683       O686   1.934       .  S
Ni683       O688   1.910       .  S
C684        O694   1.276       .  A
C684       C3516   1.487       .  S
O685       Ni701   1.938       .  S
O685        C691   1.287       .  A
O686        C691   1.281       .  A
C687       C1260   1.484       .  S
O688        C690   1.269       .  A
O689       Ni700   1.936       .  S
C690        O696   1.276       .  A
C690       C2124   1.490   1_545  S
C691       C1476   1.496   1_545  S
H692        O693   0.966       .  S
O693       Ni701   1.930       .  S
O693       Ni695   1.899       .  S
O693       Ni700   1.901       .  S
O694       Ni695   1.938       .  S
Ni695       O699   1.902       .  S
Ni695       O697   1.919       .  S
O696       Ni701   1.948       .  S
C698        O699   1.266       .  A
C698       C1284   1.470   1_554  S
O703       Ni709   1.930       .  S
O703        C724   1.269       .  A
O704       Ni727   1.930       .  S
O704        C713   1.278       .  A
O705       Ni709   1.894       .  S
O705       Ni727   1.902       .  S
O705       Ni721   1.897       .  S
O705        H728   0.967       .  S
C706        O723   1.275       .  A
C706        O715   1.280       .  A
C706       C3180   1.480       .  S
O707       Ni726   1.933       .  S
O707        C713   1.276       .  A
O708       Ni726   1.914       .  S
O708        C710   1.269       .  A
Ni709       O712   1.918       .  S
Ni709       O714   1.902       .  S
C710        O720   1.275       .  A
C710       C3351   1.490       .  S
O711       Ni727   1.936       .  S
O711        C717   1.287       .  A
O712        C717   1.279       .  A
C713       C1311   1.486       .  S
O714        C716   1.268       .  A
O715       Ni726   1.935       .  S
C716        O722   1.277       .  A
C716       C1212   1.490       .  S
C717       C1239   1.488       .  S
H718        O719   0.966       .  S
O719       Ni727   1.924       .  S
O719       Ni721   1.897       .  S
O719       Ni726   1.898       .  S
O720       Ni721   1.935       .  S
Ni721       O725   1.908       .  S
Ni721       O723   1.911       .  S
O722       Ni727   1.948       .  S
C724        O725   1.266       .  A
C724       C1287   1.468       .  S
O729       Ni735   1.923       .  S
O729        C750   1.268       .  A
O730       Ni753   1.919       .  S
O730        C739   1.274       .  A
O731       Ni735   1.891       .  S
O731       Ni753   1.894       .  S
O731       Ni747   1.896       .  S
O731        H754   0.967       .  S
C732        O749   1.272       .  A
C732        O741   1.279       .  A
C732       C2247   1.493       .  S
O733       Ni752   1.932       .  S
O733        C739   1.276       .  A
O734       Ni752   1.906       .  S
O734        C736   1.270       .  A
Ni735       O738   1.919       .  S
Ni735       O740   1.897       .  S
C736        O746   1.277       .  A
C736       C2103   1.490       .  S
O737       Ni753   1.945       .  S
O737        C743   1.288       .  A
O738        C743   1.279       .  A
C739       C1263   1.487       .  S
O740        C742   1.265       .  A
O741       Ni752   1.943       .  S
C742        O748   1.274       .  A
C742       C3300   1.485   1_565  S
C743       C1380   1.494   1_565  S
H744        O745   0.966       .  S
O745       Ni753   1.937       .  S
O745       Ni747   1.907       .  S
O745       Ni752   1.903       .  S
O746       Ni747   1.939       .  S
Ni747       O751   1.908       .  S
Ni747       O749   1.913       .  S
O748       Ni753   1.941       .  S
C750        O751   1.267       .  A
C750       C1188   1.471       .  S
O755       Ni761   1.934       .  S
O755        C776   1.271       .  A
O756       Ni779   1.926       .  S
O756        C765   1.275       .  A
O757       Ni761   1.896       .  S
O757       Ni779   1.898       .  S
O757       Ni773   1.893       .  S
O757        H780   0.967       .  S
C758        O775   1.273       .  A
C758        O767   1.278       .  A
C758       C1959   1.493       .  S
O759       Ni778   1.929       .  S
O759        C765   1.274       .  A
O760       Ni778   1.910       .  S
O760        C762   1.270       .  A
Ni761       O764   1.924       .  S
Ni761       O766   1.910       .  S
C762        O772   1.273       .  A
C762       C2199   1.487       .  S
O763       Ni779   1.935       .  S
O763        C769   1.286       .  A
O764        C769   1.280       .  A
C765       C1407   1.490       .  S
O766        C768   1.268       .  A
O767       Ni778   1.939       .  S
C768        O774   1.275       .  A
C768       C1167   1.486       .  S
C769       C1236   1.490       .  S
H770        O771   0.966       .  S
O771       Ni779   1.934       .  S
O771       Ni773   1.910       .  S
O771       Ni778   1.908       .  S
O772       Ni773   1.930       .  S
Ni773       O777   1.899       .  S
Ni773       O775   1.917       .  S
O774       Ni779   1.942       .  S
C776        O777   1.264       .  A
C776       C1191   1.463       .  S
O781       Ni787   1.939       .  S
O781        C802   1.277       .  A
O782       Ni805   1.898       .  S
O782        C791   1.263   1_556  A
O783       Ni787   1.910       .  S
O783       Ni805   1.905       .  S
O783       Ni799   1.930       .  S
O783        H806   0.966       .  S
C784        O801   1.283       .  A
C784        O793   1.281       .  A
C784       C1119   1.489   1_565  S
O785       Ni804   1.939   1_554  S
O785        C791   1.272       .  A
O786       Ni804   1.908       .  S
O786        C788   1.268       .  A
Ni787       O790   1.948       .  S
Ni787       O792   1.908       .  S
C788        O798   1.276       .  A
C788       C1572   1.489   1_565  S
O789       Ni805   1.900       .  S
O789        C795   1.269       .  A
O790        C795   1.280       .  A
C791       C1143   1.467       .  S
O792        C794   1.269       .  A
O793       Ni804   1.926       .  S
C794        O800   1.273       .  A
C794       C2871   1.483       .  S
C795       C2484   1.488       .  S
H796        O797   0.967       .  S
O797       Ni805   1.889       .  S
O797       Ni799   1.898       .  S
O797       Ni804   1.897       .  S
O798       Ni799   1.944       .  S
Ni799       O803   1.923       .  S
Ni799       O801   1.929       .  S
O800       Ni805   1.926       .  S
C802        O803   1.274       .  A
C802       C1092   1.488       .  S
O807       Ni813   1.928       .  S
O807        C828   1.275       .  A
O808       Ni831   1.899       .  S
O808        C817   1.265       .  A
O809       Ni813   1.906       .  S
O809       Ni831   1.902       .  S
O809       Ni825   1.930       .  S
O809        H832   0.966       .  S
C810        O827   1.285       .  A
C810        O819   1.281       .  A
C810       C1068   1.488       .  S
O811       Ni830   1.940       .  S
O811        C817   1.274       .  A
O812       Ni830   1.910       .  S
O812        C814   1.268       .  A
Ni813       O816   1.938       .  S
Ni813       O818   1.912       .  S
C814        O824   1.275       .  A
C814       C1431   1.488       .  S
O815       Ni831   1.905       .  S
O815        C821   1.271       .  A
O816        C821   1.278       .  A
C817       C1140   1.469       .  S
O818        C820   1.270       .  A
O819       Ni830   1.934       .  S
C820        O826   1.275       .  A
C820       C2724   1.489       .  S
C821       C2415   1.485       .  S
H822        O823   0.966       .  S
O823       Ni831   1.890       .  S
O823       Ni825   1.896       .  S
O823       Ni830   1.898       .  S
O824       Ni825   1.941       .  S
Ni825       O829   1.927       .  S
Ni825       O827   1.931       .  S
O826       Ni831   1.931       .  S
C828        O829   1.276       .  A
C828       C1044   1.489       .  S
O833       Ni839   1.931       .  S
O833        C854   1.275       .  A
O834       Ni857   1.905       .  S
O834        C843   1.267       .  A
O835       Ni839   1.906       .  S
O835       Ni857   1.907       .  S
O835       Ni851   1.935       .  S
O835        H858   0.966       .  S
C836        O853   1.288       .  A
C836        O845   1.281       .  A
C836        C999   1.498       .  S
O837       Ni856   1.937       .  S
O837        C843   1.272       .  A
O838       Ni856   1.911       .  S
O838        C840   1.269       .  A
Ni839       O842   1.939       .  S
Ni839       O844   1.913       .  S
C840        O850   1.276       .  A
C840       C2799   1.494       .  S
O841       Ni857   1.914       .  S
O841        C847   1.273       .  A
O842        C847   1.278       .  A
C843       C1023   1.472       .  S
O844        C846   1.270       .  A
O845       Ni856   1.927       .  S
C846        O852   1.278       .  A
C846       C1359   1.495       .  S
C847       C1164   1.488       .  S
H848        O849   0.967       .  S
O849       Ni857   1.894       .  S
O849       Ni851   1.897       .  S
O849       Ni856   1.894       .  S
O850       Ni851   1.950       .  S
Ni851       O855   1.922       .  S
Ni851       O853   1.945       .  S
O852       Ni857   1.942       .  S
C854        O855   1.276       .  A
C854       C1047   1.486       .  S
O859       Ni865   1.940       .  S
O859        C880   1.275       .  A
O860       Ni883   1.903       .  S
O860        C869   1.267       .  A
O861       Ni865   1.906       .  S
O861       Ni883   1.909       .  S
O861       Ni877   1.927       .  S
O861        H884   0.966       .  S
C862        O879   1.285       .  A
C862        O871   1.281       .  A
C862       C1116   1.488       .  S
O863       Ni882   1.939       .  S
O863        C869   1.274       .  A
O864       Ni882   1.916       .  S
O864        C866   1.269       .  A
Ni865       O868   1.939       .  S
Ni865       O870   1.905       .  S
C866        O876   1.273       .  A
C866       C1527   1.489       .  S
O867       Ni883   1.912       .  S
O867        C873   1.272       .  A
O868        C873   1.279       .  A
C869       C1020   1.473       .  S
O870        C872   1.270       .  A
O871       Ni882   1.932       .  S
C872        O878   1.277       .  A
C872       C1503   1.494       .  S
C873       C1215   1.484       .  S
H874        O875   0.967       .  S
O875       Ni883   1.892       .  S
O875       Ni877   1.896       .  S
O875       Ni882   1.900       .  S
O876       Ni877   1.939       .  S
Ni877       O881   1.921       .  S
Ni877       O879   1.927       .  S
O878       Ni883   1.945       .  S
C880        O881   1.273       .  A
C880        C972   1.484   1_556  S
O885       Ni891   1.932       .  S
O885        C906   1.275       .  A
O886       Ni909   1.906       .  S
O886        C895   1.268       .  A
O887       Ni891   1.897       .  S
O887       Ni909   1.902       .  S
O887       Ni903   1.929       .  S
O887        H910   0.966       .  S
C888        O905   1.286       .  A
C888        O897   1.281       .  A
C888        C996   1.495   1_545  S
O889       Ni908   1.936       .  S
O889        C895   1.272       .  A
O890       Ni908   1.906       .  S
O890        C892   1.267       .  A
Ni891       O894   1.932       .  S
Ni891       O896   1.903       .  S
C892        O902   1.276       .  A
C892       C2679   1.484   1_545  S
O893       Ni909   1.923       .  S
O893        C899   1.276       .  A
O894        C899   1.279       .  A
C895        C951   1.471       .  S
O896        C898   1.269       .  A
O897       Ni908   1.936       .  S
C898        O904   1.278       .  A
C898       C1548   1.491       .  S
C899       C1695   1.483       .  S
H900        O901   0.967       .  S
O901       Ni909   1.902       .  S
O901       Ni903   1.900       .  S
O901       Ni908   1.901       .  S
O902       Ni903   1.945       .  S
Ni903       O907   1.929       .  S
Ni903       O905   1.934       .  S
O904       Ni909   1.943       .  S
C906        O907   1.278       .  A
C906       C1095   1.494       .  S
O911       Ni917   1.937       .  S
O911        C932   1.277       .  A
O912       Ni935   1.905       .  S
O912        C921   1.265       .  A
O913       Ni917   1.908       .  S
O913       Ni935   1.907       .  S
O913       Ni929   1.938       .  S
O913        H936   0.966       .  S
C914        O931   1.289       .  A
C914        O923   1.280       .  A
C914       C1071   1.494       .  S
O915       Ni934   1.930       .  S
O915        C921   1.269       .  A
O916       Ni934   1.907       .  S
O916        C918   1.268       .  A
Ni917       O920   1.944       .  S
Ni917       O922   1.914       .  S
C918        O928   1.274       .  A
C918       C1332   1.488       .  S
O919       Ni935   1.906       .  S
O919        C925   1.271       .  A
O920        C925   1.279       .  A
C921        C948   1.469       .  S
O922        C924   1.271       .  A
O923       Ni934   1.919       .  S
C924        O930   1.274       .  A
C924       C1623   1.487       .  S
C925       C1812   1.488       .  S
H926        O927   0.967       .  S
O927       Ni935   1.891       .  S
O927       Ni929   1.897       .  S
O927       Ni934   1.894       .  S
O928       Ni929   1.943       .  S
Ni929       O933   1.925       .  S
Ni929       O931   1.946       .  S
O930       Ni935   1.927       .  S
C932        O933   1.278       .  A
C932        C975   1.495       .  S
C937        C938   1.399       .  A
C937        C942   1.403       .  A
C937        H953   1.084       .  S
C938        C939   1.403       .  A
C938        H954   1.084       .  S
C939        C949   1.403       .  A
C939        C940   1.413       .  A
C940        C946   1.412       .  A
C940        C941   1.412       .  A
C941        C943   1.412       .  A
C941        C942   1.412       .  A
C942        C950   1.403       .  A
C943        C952   1.404       .  A
C943        C944   1.404       .  A
C944        C945   1.399       .  A
C944        H955   1.084       .  S
C945        C946   1.404       .  A
C945        H956   1.084       .  S
C946        C947   1.402       .  A
C947        C948   1.404       .  A
C947        H957   1.085       .  S
C948        C949   1.403       .  A
C949        H958   1.084       .  S
C950        C951   1.404       .  A
C950        H959   1.085       .  S
C951        C952   1.405       .  A
C952        H960   1.084       .  S
C961        C962   1.401       .  A
C961        C966   1.405       .  A
C961        H977   1.084       .  S
C962        C963   1.404       .  A
C962        H978   1.084       .  S
C963        C973   1.409       .  A
C963        C964   1.414       .  A
C964        C970   1.410       .  A
C964        C965   1.416       .  A
C965        C967   1.413       .  A
C965        C966   1.409       .  A
C966        C974   1.405       .  A
C967        C976   1.409       .  A
C967        C968   1.404       .  A
C968        C969   1.401       .  A
C968        H979   1.083       .  S
C969        C970   1.405       .  A
C969        H980   1.083       .  S
C970        C971   1.406       .  A
C971        C972   1.408       .  A
C971        H981   1.084       .  S
C972        C973   1.406       .  A
C973        H982   1.084   1_554  S
C974        C975   1.413       .  A
C974        H983   1.084       .  S
C975        C976   1.409       .  A
C976        H984   1.084       .  S
C985        C986   1.404       .  A
C985        C990   1.405       .  A
C985       H1001   1.083       .  S
C986        C987   1.407       .  A
C986       H1002   1.083       .  S
C987        C997   1.407       .  A
C987        C988   1.407       .  A
C988        C994   1.415       .  A
C988        C989   1.417       .  A
C989        C991   1.406       .  A
C989        C990   1.416       .  A
C990        C998   1.416       .  A
C991       C1000   1.399       .  A
C991        C992   1.405       .  A
C992        C993   1.398       .  A
C992       H1003   1.084       .  S
C993        C994   1.402       .  A
C993       H1004   1.084       .  S
C994        C995   1.408       .  A
C995        C996   1.406       .  A
C995       H1005   1.084   1_565  S
C996        C997   1.416       .  A
C997       H1006   1.084       .  S
C998        C999   1.410       .  A
C998       H1007   1.084       .  S
C999       C1000   1.415       .  A
C1000      H1008   1.084       .  S
C1009      C1010   1.399       .  A
C1009      C1014   1.404       .  A
C1009      H1025   1.084       .  S
C1010      C1011   1.404   1_565  A
C1010      H1026   1.084       .  S
C1011      C1021   1.403       .  A
C1011      C1012   1.412       .  A
C1012      C1018   1.413       .  A
C1012      C1013   1.412   1_545  A
C1013      C1015   1.412   1_565  A
C1013      C1014   1.413       .  A
C1014      C1022   1.404       .  A
C1015      C1024   1.403   1_545  A
C1015      C1016   1.404       .  A
C1016      C1017   1.399       .  A
C1016      H1027   1.084       .  S
C1017      C1018   1.403       .  A
C1017      H1028   1.083       .  S
C1018      C1019   1.404       .  A
C1019      C1020   1.405       .  A
C1019      H1029   1.084       .  S
C1020      C1021   1.405       .  A
C1021      H1030   1.085       .  S
C1022      C1023   1.405       .  A
C1022      H1031   1.084       .  S
C1023      C1024   1.404       .  A
C1024      H1032   1.085       .  S
C1033      C1034   1.402       .  A
C1033      C1038   1.405       .  A
C1033      H1049   1.084       .  S
C1034      C1035   1.404       .  A
C1034      H1050   1.083       .  S
C1035      C1045   1.411       .  A
C1035      C1036   1.414       .  A
C1036      C1042   1.408       .  A
C1036      C1037   1.415       .  A
C1037      C1039   1.414       .  A
C1037      C1038   1.409       .  A
C1038      C1046   1.404       .  A
C1039      C1048   1.406       .  A
C1039      C1040   1.402       .  A
C1040      C1041   1.398       .  A
C1040      H1051   1.084       .  S
C1041      C1042   1.404       .  A
C1041      H1052   1.084       .  S
C1042      C1043   1.400       .  A
C1043      C1044   1.410       .  A
C1043      H1053   1.084       .  S
C1044      C1045   1.408       .  A
C1045      H1054   1.084       .  S
C1046      C1047   1.412       .  A
C1046      H1055   1.084       .  S
C1047      C1048   1.405       .  A
C1048      H1056   1.084       .  S
C1057      C1058   1.399   1_545  A
C1057      C1062   1.405       .  A
C1057      H1073   1.084       .  S
C1058      C1059   1.402       .  A
C1058      H1074   1.084       .  S
C1059      C1069   1.408       .  A
C1059      C1060   1.415       .  A
C1060      C1066   1.408       .  A
C1060      C1061   1.415   1_565  A
C1061      C1063   1.416       .  A
C1061      C1062   1.406       .  A
C1062      C1070   1.399       .  A
C1063      C1072   1.413       .  A
C1063      C1064   1.404       .  A
C1064      C1065   1.402   1_545  A
C1064      H1075   1.083       .  S
C1065      C1066   1.406       .  A
C1065      H1076   1.083       .  S
C1066      C1067   1.404       .  A
C1067      C1068   1.413       .  A
C1067      H1077   1.084       .  S
C1068      C1069   1.406       .  A
C1069      H1078   1.084       .  S
C1070      C1071   1.415       .  A
C1070      H1079   1.084       .  S
C1071      C1072   1.407       .  A
C1072      H1080   1.084       .  S
C1081      C1082   1.400       .  A
C1081      C1086   1.403       .  A
C1081      H1097   1.083       .  S
C1082      C1083   1.405       .  A
C1082      H1098   1.084       .  S
C1083      C1093   1.403       .  A
C1083      C1084   1.409   1_565  A
C1084      C1090   1.415       .  A
C1084      C1085   1.417       .  A
C1085      C1087   1.408       .  A
C1085      C1086   1.414   1_545  A
C1086      C1094   1.410   1_565  A
C1087      C1096   1.405       .  A
C1087      C1088   1.406       .  A
C1088      C1089   1.402       .  A
C1088      H1099   1.084       .  S
C1089      C1090   1.404       .  A
C1089      H1100   1.083       .  S
C1090      C1091   1.412       .  A
C1091      C1092   1.408   1_545  A
C1091      H1101   1.084       .  S
C1092      C1093   1.410       .  A
C1093      H1102   1.084       .  S
C1094      C1095   1.408       .  A
C1094      H1103   1.084   1_545  S
C1095      C1096   1.414       .  A
C1096      H1104   1.084       .  S
C1105      C1106   1.398       .  A
C1105      C1110   1.404       .  A
C1105      H1121   1.084       .  S
C1106      C1107   1.402       .  A
C1106      H1122   1.084       .  S
C1107      C1117   1.406       .  A
C1107      C1108   1.414       .  A
C1108      C1114   1.408       .  A
C1108      C1109   1.413       .  A
C1109      C1111   1.414       .  A
C1109      C1110   1.407       .  A
C1110      C1118   1.398       .  A
C1111      C1120   1.410       .  A
C1111      C1112   1.403       .  A
C1112      C1113   1.401       .  A
C1112      H1123   1.084       .  S
C1113      C1114   1.406       .  A
C1113      H1124   1.084       .  S
C1114      C1115   1.402       .  A
C1115      C1116   1.414       .  A
C1115      H1125   1.084       .  S
C1116      C1117   1.405       .  A
C1117      H1126   1.084       .  S
C1118      C1119   1.412       .  A
C1118      H1127   1.084       .  S
C1119      C1120   1.408       .  A
C1120      H1128   1.084       .  S
C1129      C1130   1.398       .  A
C1129      C1134   1.403       .  A
C1129      H1145   1.084       .  S
C1130      C1131   1.403       .  A
C1130      H1146   1.084       .  S
C1131      C1141   1.401       .  A
C1131      C1132   1.412       .  A
C1132      C1138   1.412       .  A
C1132      C1133   1.410       .  A
C1133      C1135   1.412       .  A
C1133      C1134   1.412       .  A
C1134      C1142   1.401       .  A
C1135      C1144   1.403       .  A
C1135      C1136   1.403       .  A
C1136      C1137   1.399       .  A
C1136      H1147   1.084       .  S
C1137      C1138   1.404       .  A
C1137      H1148   1.084       .  S
C1138      C1139   1.403       .  A
C1139      C1140   1.404       .  A
C1139      H1149   1.085       .  S
C1140      C1141   1.403       .  A
C1141      H1150   1.085       .  S
C1142      C1143   1.403       .  A
C1142      H1151   1.085   1_554  S
C1143      C1144   1.403       .  A
C1144      H1152   1.084       .  S
C1153      C1154   1.402       .  A
C1153      C1158   1.405       .  A
C1153      H1169   1.083       .  S
C1154      C1155   1.404       .  A
C1154      H1170   1.083       .  S
C1155      C1165   1.409       .  A
C1155      C1156   1.413       .  A
C1156      C1162   1.410       .  A
C1156      C1157   1.415       .  A
C1157      C1159   1.412       .  A
C1157      C1158   1.411       .  A
C1158      C1166   1.407       .  A
C1159      C1168   1.404       .  A
C1159      C1160   1.403       .  A
C1160      C1161   1.399       .  A
C1160      H1171   1.084       .  S
C1161      C1162   1.404       .  A
C1161      H1172   1.084       .  S
C1162      C1163   1.403       .  A
C1163      C1164   1.410       .  A
C1163      H1173   1.084       .  S
C1164      C1165   1.408       .  A
C1165      H1174   1.084       .  S
C1166      C1167   1.409       .  A
C1166      H1175   1.084       .  S
C1167      C1168   1.408       .  A
C1168      H1176   1.084       .  S
C1177      C1178   1.397       .  A
C1177      C1182   1.403       .  A
C1177      H1193   1.084       .  S
C1178      C1179   1.403       .  A
C1178      H1194   1.084       .  S
C1179      C1189   1.399       .  A
C1179      C1180   1.411       .  A
C1180      C1186   1.413       .  A
C1180      C1181   1.410       .  A
C1181      C1183   1.413       .  A
C1181      C1182   1.412       .  A
C1182      C1190   1.400       .  A
C1183      C1192   1.403       .  A
C1183      C1184   1.403       .  A
C1184      C1185   1.399       .  A
C1184      H1195   1.083       .  S
C1185      C1186   1.403       .  A
C1185      H1196   1.084       .  S
C1186      C1187   1.403       .  A
C1187      C1188   1.404       .  A
C1187      H1197   1.084       .  S
C1188      C1189   1.406       .  A
C1189      H1198   1.085       .  S
C1190      C1191   1.402       .  A
C1190      H1199   1.085       .  S
C1191      C1192   1.402       .  A
C1192      H1200   1.084       .  S
C1201      C1202   1.400       .  A
C1201      C1206   1.404       .  A
C1201      H1217   1.084       .  S
C1202      C1203   1.404       .  A
C1202      H1218   1.084       .  S
C1203      C1213   1.407       .  A
C1203      C1204   1.413       .  A
C1204      C1210   1.410       .  A
C1204      C1205   1.415       .  A
C1205      C1207   1.413       .  A
C1205      C1206   1.410       .  A
C1206      C1214   1.404       .  A
C1207      C1216   1.408       .  A
C1207      C1208   1.404       .  A
C1208      C1209   1.400       .  A
C1208      H1219   1.083       .  S
C1209      C1210   1.405       .  A
C1209      H1220   1.084       .  S
C1210      C1211   1.405       .  A
C1211      C1212   1.411       .  A
C1211      H1221   1.084       .  S
C1212      C1213   1.408       .  A
C1213      H1222   1.084       .  S
C1214      C1215   1.409       .  A
C1214      H1223   1.084       .  S
C1215      C1216   1.406       .  A
C1216      H1224   1.084       .  S
C1225      C1226   1.400   1_545  A
C1225      C1230   1.405       .  A
C1225      H1241   1.084       .  S
C1226      C1227   1.403       .  A
C1226      H1242   1.084       .  S
C1227      C1237   1.410       .  A
C1227      C1228   1.416       .  A
C1228      C1234   1.406       .  A
C1228      C1229   1.413   1_565  A
C1229      C1231   1.416       .  A
C1229      C1230   1.406       .  A
C1230      C1238   1.399       .  A
C1231      C1240   1.408       .  A
C1231      C1232   1.402       .  A
C1232      C1233   1.398   1_545  A
C1232      H1243   1.084       .  S
C1233      C1234   1.405       .  A
C1233      H1244   1.084       .  S
C1234      C1235   1.398       .  A
C1235      C1236   1.414       .  A
C1235      H1245   1.084       .  S
C1236      C1237   1.407       .  A
C1237      H1246   1.084       .  S
C1238      C1239   1.414       .  A
C1238      H1247   1.084       .  S
C1239      C1240   1.405       .  A
C1240      H1248   1.084       .  S
C1249      C1250   1.399       .  A
C1249      C1254   1.404       .  A
C1249      H1265   1.084       .  S
C1250      C1251   1.403       .  A
C1250      H1266   1.084       .  S
C1251      C1261   1.407   1_565  A
C1251      C1252   1.414   1_565  A
C1252      C1258   1.409       .  A
C1252      C1253   1.414   1_545  A
C1253      C1255   1.414   1_565  A
C1253      C1254   1.408       .  A
C1254      C1262   1.401       .  A
C1255      C1264   1.409       .  A
C1255      C1256   1.404       .  A
C1256      C1257   1.401       .  A
C1256      H1267   1.084       .  S
C1257      C1258   1.405       .  A
C1257      H1268   1.084       .  S
C1258      C1259   1.403       .  A
C1259      C1260   1.411       .  A
C1259      H1269   1.084       .  S
C1260      C1261   1.405       .  A
C1261      H1270   1.084   1_545  S
C1262      C1263   1.410       .  A
C1262      H1271   1.084       .  S
C1263      C1264   1.408   1_565  A
C1264      H1272   1.084       .  S
C1273      C1274   1.399       .  A
C1273      C1278   1.403       .  A
C1273      H1289   1.084       .  S
C1274      C1275   1.404       .  A
C1274      H1290   1.084       .  S
C1275      C1285   1.403       .  A
C1275      C1276   1.412       .  A
C1276      C1282   1.412       .  A
C1276      C1277   1.411       .  A
C1277      C1279   1.412       .  A
C1277      C1278   1.412       .  A
C1278      C1286   1.403       .  A
C1279      C1288   1.402       .  A
C1279      C1280   1.403       .  A
C1280      C1281   1.398       .  A
C1280      H1291   1.084       .  S
C1281      C1282   1.403       .  A
C1281      H1292   1.084       .  S
C1282      C1283   1.402       .  A
C1283      C1284   1.404       .  A
C1283      H1293   1.085       .  S
C1284      C1285   1.404       .  A
C1285      H1294   1.085   1_556  S
C1286      C1287   1.404       .  A
C1286      H1295   1.084       .  S
C1287      C1288   1.403       .  A
C1288      H1296   1.085       .  S
C1297      C1298   1.401       .  A
C1297      C1302   1.405       .  A
C1297      H1313   1.084       .  S
C1298      C1299   1.404       .  A
C1298      H1314   1.084       .  S
C1299      C1309   1.409       .  A
C1299      C1300   1.414       .  A
C1300      C1306   1.408       .  A
C1300      C1301   1.416       .  A
C1301      C1303   1.414       .  A
C1301      C1302   1.409       .  A
C1302      C1310   1.404       .  A
C1303      C1312   1.409       .  A
C1303      C1304   1.403       .  A
C1304      C1305   1.401       .  A
C1304      H1315   1.083       .  S
C1305      C1306   1.405       .  A
C1305      H1316   1.084       .  S
C1306      C1307   1.403       .  A
C1307      C1308   1.412       .  A
C1307      H1317   1.084       .  S
C1308      C1309   1.409       .  A
C1309      H1318   1.084       .  S
C1310      C1311   1.410       .  A
C1310      H1319   1.084       .  S
C1311      C1312   1.406       .  A
C1312      H1320   1.084       .  S
C1321      C1322   1.399       .  A
C1321      C1326   1.403       .  A
C1321      H1337   1.083       .  S
C1322      C1323   1.404       .  A
C1322      H1338   1.084       .  S
C1323      C1333   1.403       .  A
C1323      C1324   1.410       .  A
C1324      C1330   1.413       .  A
C1324      C1325   1.415       .  A
C1325      C1327   1.410       .  A
C1325      C1326   1.413       .  A
C1326      C1334   1.406       .  A
C1327      C1336   1.406       .  A
C1327      C1328   1.405       .  A
C1328      C1329   1.401       .  A
C1328      H1339   1.084       .  S
C1329      C1330   1.404       .  A
C1329      H1340   1.084       .  S
C1330      C1331   1.408       .  A
C1331      C1332   1.409       .  A
C1331      H1341   1.084       .  S
C1332      C1333   1.409       .  A
C1333      H1342   1.084       .  S
C1334      C1335   1.406       .  A
C1334      H1343   1.084       .  S
C1335      C1336   1.411       .  A
C1336      H1344   1.084       .  S
C1345      C1346   1.402       .  A
C1345      C1350   1.406       .  A
C1345      H1361   1.084       .  S
C1346      C1347   1.405   1_565  A
C1346      H1362   1.084       .  S
C1347      C1357   1.411       .  A
C1347      C1348   1.413       .  A
C1348      C1354   1.409       .  A
C1348      C1349   1.417   1_545  A
C1349      C1351   1.413       .  A
C1349      C1350   1.409       .  A
C1350      C1358   1.407       .  A
C1351      C1360   1.408       .  A
C1351      C1352   1.403   1_565  A
C1352      C1353   1.400       .  A
C1352      H1363   1.083       .  S
C1353      C1354   1.404       .  A
C1353      H1364   1.083       .  S
C1354      C1355   1.404       .  A
C1355      C1356   1.411       .  A
C1355      H1365   1.084       .  S
C1356      C1357   1.411       .  A
C1357      H1366   1.084       .  S
C1358      C1359   1.414       .  A
C1358      H1367   1.084       .  S
C1359      C1360   1.408       .  A
C1360      H1368   1.084       .  S
C1369      C1370   1.401       .  A
C1369      C1374   1.406       .  A
C1369      H1385   1.084       .  S
C1370      C1371   1.403       .  A
C1370      H1386   1.083       .  S
C1371      C1381   1.412       .  A
C1371      C1372   1.416       .  A
C1372      C1378   1.406       .  A
C1372      C1373   1.415       .  A
C1373      C1375   1.416       .  A
C1373      C1374   1.406       .  A
C1374      C1382   1.401       .  A
C1375      C1384   1.410       .  A
C1375      C1376   1.403       .  A
C1376      C1377   1.400       .  A
C1376      H1387   1.084       .  S
C1377      C1378   1.405       .  A
C1377      H1388   1.084       .  S
C1378      C1379   1.400       .  A
C1379      C1380   1.415       .  A
C1379      H1389   1.084       .  S
C1380      C1381   1.407       .  A
C1381      H1390   1.084       .  S
C1382      C1383   1.415       .  A
C1382      H1391   1.084       .  S
C1383      C1384   1.407       .  A
C1384      H1392   1.084       .  S
C1393      C1394   1.399       .  A
C1393      C1398   1.405       .  A
C1393      H1409   1.084       .  S
C1394      C1395   1.403       .  A
C1394      H1410   1.084       .  S
C1395      C1405   1.407       .  A
C1395      C1396   1.414       .  A
C1396      C1402   1.409       .  A
C1396      C1397   1.415       .  A
C1397      C1399   1.414       .  A
C1397      C1398   1.408       .  A
C1398      C1406   1.401       .  A
C1399      C1408   1.410       .  A
C1399      C1400   1.404       .  A
C1400      C1401   1.401       .  A
C1400      H1411   1.083       .  S
C1401      C1402   1.405       .  A
C1401      H1412   1.084       .  S
C1402      C1403   1.403       .  A
C1403      C1404   1.411       .  A
C1403      H1413   1.084       .  S
C1404      C1405   1.405       .  A
C1405      H1414   1.084   1_556  S
C1406      C1407   1.412       .  A
C1406      H1415   1.084       .  S
C1407      C1408   1.408       .  A
C1408      H1416   1.084       .  S
C1417      C1418   1.403       .  A
C1417      C1422   1.405       .  A
C1417      H1433   1.083       .  S
C1418      C1419   1.405       .  A
C1418      H1434   1.083       .  S
C1419      C1429   1.411       .  A
C1419      C1420   1.413       .  A
C1420      C1426   1.410       .  A
C1420      C1421   1.415       .  A
C1421      C1423   1.412       .  A
C1421      C1422   1.411       .  A
C1422      C1430   1.409       .  A
C1423      C1432   1.403       .  A
C1423      C1424   1.403       .  A
C1424      C1425   1.398       .  A
C1424      H1435   1.084       .  S
C1425      C1426   1.403       .  A
C1425      H1436   1.084       .  S
C1426      C1427   1.402       .  A
C1427      C1428   1.408       .  A
C1427      H1437   1.084       .  S
C1428      C1429   1.409       .  A
C1429      H1438   1.084       .  S
C1430      C1431   1.411       .  A
C1430      H1439   1.084       .  S
C1431      C1432   1.407       .  A
C1432      H1440   1.084       .  S
C1441      C1442   1.398       .  A
C1441      C1446   1.402       .  A
C1441      H1457   1.084       .  S
C1442      C1443   1.403   1_545  A
C1442      H1458   1.084       .  S
C1443      C1453   1.401       .  A
C1443      C1444   1.412       .  A
C1444      C1450   1.412       .  A
C1444      C1445   1.410   1_565  A
C1445      C1447   1.412       .  A
C1445      C1446   1.413       .  A
C1446      C1454   1.401       .  A
C1447      C1456   1.401       .  A
C1447      C1448   1.404   1_545  A
C1448      C1449   1.399       .  A
C1448      H1459   1.084       .  S
C1449      C1450   1.403       .  A
C1449      H1460   1.084       .  S
C1450      C1451   1.402       .  A
C1451      C1452   1.405       .  A
C1451      H1461   1.085       .  S
C1452      C1453   1.403       .  A
C1453      H1462   1.085       .  S
C1454      C1455   1.401       .  A
C1454      H1463   1.084       .  S
C1455      C1456   1.403       .  A
C1456      H1464   1.085       .  S
C1465      C1466   1.403       .  A
C1465      C1470   1.404       .  A
C1465      H1481   1.083       .  S
C1466      C1467   1.406       .  A
C1466      H1482   1.083       .  S
C1467      C1477   1.406       .  A
C1467      C1468   1.407       .  A
C1468      C1474   1.415       .  A
C1468      C1469   1.417       .  A
C1469      C1471   1.406       .  A
C1469      C1470   1.415       .  A
C1470      C1478   1.415       .  A
C1471      C1480   1.402       .  A
C1471      C1472   1.405       .  A
C1472      C1473   1.400       .  A
C1472      H1483   1.084       .  S
C1473      C1474   1.403       .  A
C1473      H1484   1.084       .  S
C1474      C1475   1.410       .  A
C1475      C1476   1.407       .  A
C1475      H1485   1.084   1_565  S
C1476      C1477   1.416       .  A
C1477      H1486   1.084       .  S
C1478      C1479   1.410       .  A
C1478      H1487   1.084       .  S
C1479      C1480   1.415       .  A
C1480      H1488   1.084       .  S
C1489      C1490   1.399       .  A
C1489      C1494   1.404       .  A
C1489      H1505   1.084       .  S
C1490      C1491   1.403   1_545  A
C1490      H1506   1.084       .  S
C1491      C1501   1.408       .  A
C1491      C1492   1.414       .  A
C1492      C1498   1.408   1_554  A
C1492      C1493   1.416   1_564  A
C1493      C1495   1.414       .  A
C1493      C1494   1.408   1_556  A
C1494      C1502   1.402   1_554  A
C1495      C1504   1.412       .  A
C1495      C1496   1.404   1_545  A
C1496      C1497   1.402       .  A
C1496      H1507   1.083       .  S
C1497      C1498   1.406       .  A
C1497      H1508   1.083       .  S
C1498      C1499   1.406   1_556  A
C1499      C1500   1.414       .  A
C1499      H1509   1.084       .  S
C1500      C1501   1.408       .  A
C1501      H1510   1.084       .  S
C1502      C1503   1.413       .  A
C1502      H1511   1.084       .  S
C1503      C1504   1.410       .  A
C1504      H1512   1.084       .  S
C1513      C1514   1.401       .  A
C1513      C1518   1.404       .  A
C1513      H1529   1.083       .  S
C1514      C1515   1.404       .  A
C1514      H1530   1.083       .  S
C1515      C1525   1.408       .  A
C1515      C1516   1.412       .  A
C1516      C1522   1.411       .  A
C1516      C1517   1.416       .  A
C1517      C1519   1.411       .  A
C1517      C1518   1.412       .  A
C1518      C1526   1.407       .  A
C1519      C1528   1.406       .  A
C1519      C1520   1.404       .  A
C1520      C1521   1.401       .  A
C1520      H1531   1.084       .  S
C1521      C1522   1.405       .  A
C1521      H1532   1.084       .  S
C1522      C1523   1.406       .  A
C1523      C1524   1.411       .  A
C1523      H1533   1.084       .  S
C1524      C1525   1.408       .  A
C1525      H1534   1.084       .  S
C1526      C1527   1.409       .  A
C1526      H1535   1.084       .  S
C1527      C1528   1.410       .  A
C1528      H1536   1.084       .  S
C1537      C1538   1.400       .  A
C1537      C1542   1.405       .  A
C1537      H1553   1.084       .  S
C1538      C1539   1.403       .  A
C1538      H1554   1.083       .  S
C1539      C1549   1.409       .  A
C1539      C1540   1.414       .  A
C1540      C1546   1.408       .  A
C1540      C1541   1.414       .  A
C1541      C1543   1.414       .  A
C1541      C1542   1.408       .  A
C1542      C1550   1.402       .  A
C1543      C1552   1.408       .  A
C1543      C1544   1.403       .  A
C1544      C1545   1.400       .  A
C1544      H1555   1.084       .  S
C1545      C1546   1.405       .  A
C1545      H1556   1.084       .  S
C1546      C1547   1.401       .  A
C1547      C1548   1.413       .  A
C1547      H1557   1.084       .  S
C1548      C1549   1.407       .  A
C1549      H1558   1.084       .  S
C1550      C1551   1.412       .  A
C1550      H1559   1.084       .  S
C1551      C1552   1.407       .  A
C1552      H1560   1.084       .  S
C1561      C1562   1.398       .  A
C1561      C1566   1.404   1_556  A
C1561      H1577   1.084       .  S
C1562      C1563   1.403       .  A
C1562      H1578   1.084       .  S
C1563      C1573   1.404       .  A
C1563      C1564   1.412   1_556  A
C1564      C1570   1.410       .  A
C1564      C1565   1.416       .  A
C1565      C1567   1.413       .  A
C1565      C1566   1.410       .  A
C1566      C1574   1.402       .  A
C1567      C1576   1.412       .  A
C1567      C1568   1.405       .  A
C1568      C1569   1.403       .  A
C1568      H1579   1.083       .  S
C1569      C1570   1.405       .  A
C1569      H1580   1.083       .  S
C1570      C1571   1.408       .  A
C1571      C1572   1.412   1_554  A
C1571      H1581   1.084   1_545  S
C1572      C1573   1.407       .  A
C1573      H1582   1.084       .  S
C1574      C1575   1.410       .  A
C1574      H1583   1.084       .  S
C1575      C1576   1.409       .  A
C1576      H1584   1.084       .  S
C1585      C1586   1.398       .  A
C1585      C1590   1.403       .  A
C1585      H1601   1.084       .  S
C1586      C1587   1.403       .  A
C1586      H1602   1.084       .  S
C1587      C1597   1.400       .  A
C1587      C1588   1.412       .  A
C1588      C1594   1.413       .  A
C1588      C1589   1.409       .  A
C1589      C1591   1.412       .  A
C1589      C1590   1.412       .  A
C1590      C1598   1.401       .  A
C1591      C1600   1.401       .  A
C1591      C1592   1.403       .  A
C1592      C1593   1.398       .  A
C1592      H1603   1.084       .  S
C1593      C1594   1.403       .  A
C1593      H1604   1.084       .  S
C1594      C1595   1.401       .  A
C1595      C1596   1.402       .  A
C1595      H1605   1.085       .  S
C1596      C1597   1.402       .  A
C1597      H1606   1.085   1_556  S
C1598      C1599   1.403       .  A
C1598      H1607   1.085       .  S
C1599      C1600   1.403       .  A
C1600      H1608   1.085       .  S
C1609      C1610   1.398       .  A
C1609      C1614   1.403       .  A
C1609      H1625   1.084       .  S
C1610      C1611   1.404       .  A
C1610      H1626   1.084       .  S
C1611      C1621   1.401       .  A
C1611      C1612   1.409       .  A
C1612      C1618   1.412       .  A
C1612      C1613   1.413       .  A
C1613      C1615   1.410       .  A
C1613      C1614   1.412       .  A
C1614      C1622   1.404       .  A
C1615      C1624   1.404       .  A
C1615      C1616   1.405       .  A
C1616      C1617   1.400       .  A
C1616      H1627   1.084       .  S
C1617      C1618   1.404       .  A
C1617      H1628   1.084       .  S
C1618      C1619   1.407       .  A
C1619      C1620   1.409       .  A
C1619      H1629   1.084       .  S
C1620      C1621   1.410       .  A
C1621      H1630   1.084       .  S
C1622      C1623   1.407       .  A
C1622      H1631   1.084       .  S
C1623      C1624   1.411       .  A
C1624      H1632   1.084       .  S
C1633      C1634   1.400       .  A
C1633      C1638   1.403       .  A
C1633      H1649   1.083       .  S
C1634      C1635   1.405       .  A
C1634      H1650   1.084       .  S
C1635      C1645   1.401       .  A
C1635      C1636   1.406       .  A
C1636      C1642   1.416       .  A
C1636      C1637   1.418       .  A
C1637      C1639   1.406       .  A
C1637      C1638   1.416       .  A
C1638      C1646   1.411       .  A
C1639      C1648   1.405       .  A
C1639      C1640   1.407       .  A
C1640      C1641   1.403       .  A
C1640      H1651   1.083       .  S
C1641      C1642   1.404       .  A
C1641      H1652   1.083       .  S
C1642      C1643   1.415       .  A
C1643      C1644   1.409       .  A
C1643      H1653   1.084       .  S
C1644      C1645   1.415       .  A
C1645      H1654   1.084       .  S
C1646      C1647   1.407       .  A
C1646      H1655   1.084       .  S
C1647      C1648   1.416       .  A
C1648      H1656   1.084       .  S
C1657      C1658   1.401       .  A
C1657      C1662   1.405       .  A
C1657      H1673   1.084       .  S
C1658      C1659   1.403       .  A
C1658      H1674   1.083       .  S
C1659      C1669   1.410       .  A
C1659      C1660   1.414       .  A
C1660      C1666   1.408       .  A
C1660      C1661   1.416       .  A
C1661      C1663   1.415       .  A
C1661      C1662   1.408       .  A
C1662      C1670   1.404       .  A
C1663      C1672   1.411       .  A
C1663      C1664   1.404       .  A
C1664      C1665   1.401       .  A
C1664      H1675   1.083       .  S
C1665      C1666   1.406       .  A
C1665      H1676   1.084       .  S
C1666      C1667   1.404       .  A
C1667      C1668   1.414       .  A
C1667      H1677   1.084       .  S
C1668      C1669   1.408       .  A
C1669      H1678   1.084       .  S
C1670      C1671   1.411       .  A
C1670      H1679   1.084       .  S
C1671      C1672   1.407       .  A
C1672      H1680   1.084       .  S
C1681      C1682   1.401       .  A
C1681      C1686   1.404       .  A
C1681      H1697   1.084       .  S
C1682      C1683   1.405       .  A
C1682      H1698   1.084       .  S
C1683      C1693   1.406       .  A
C1683      C1684   1.410       .  A
C1684      C1690   1.412       .  A
C1684      C1685   1.415       .  A
C1685      C1687   1.411       .  A
C1685      C1686   1.413       .  A
C1686      C1694   1.407       .  A
C1687      C1696   1.405       .  A
C1687      C1688   1.404       .  A
C1688      C1689   1.400       .  A
C1688      H1699   1.084       .  S
C1689      C1690   1.404       .  A
C1689      H1700   1.084       .  S
C1690      C1691   1.407       .  A
C1691      C1692   1.409       .  A
C1691      H1701   1.084       .  S
C1692      C1693   1.411       .  A
C1693      H1702   1.084       .  S
C1694      C1695   1.407       .  A
C1694      H1703   1.084       .  S
C1695      C1696   1.408       .  A
C1696      H1704   1.084       .  S
C1705      C1706   1.400       .  A
C1705      C1710   1.404       .  A
C1705      H1721   1.083       .  S
C1706      C1707   1.404       .  A
C1706      H1722   1.084       .  S
C1707      C1717   1.404       .  A
C1707      C1708   1.412       .  A
C1708      C1714   1.412       .  A
C1708      C1709   1.413       .  A
C1709      C1711   1.412       .  A
C1709      C1710   1.413       .  A
C1710      C1718   1.405       .  A
C1711      C1720   1.404       .  A
C1711      C1712   1.404       .  A
C1712      C1713   1.400       .  A
C1712      H1723   1.084       .  S
C1713      C1714   1.404       .  A
C1713      H1724   1.084       .  S
C1714      C1715   1.404       .  A
C1715      C1716   1.406       .  A
C1715      H1725   1.084       .  S
C1716      C1717   1.405       .  A
C1717      H1726   1.085       .  S
C1718      C1719   1.404       .  A
C1718      H1727   1.084       .  S
C1719      C1720   1.404       .  A
C1720      H1728   1.085       .  S
C1729      C1730   1.399       .  A
C1729      C1734   1.403       .  A
C1729      H1745   1.084       .  S
C1730      C1731   1.405       .  A
C1730      H1746   1.083       .  S
C1731      C1741   1.403       .  A
C1731      C1732   1.409       .  A
C1732      C1738   1.414       .  A
C1732      C1733   1.416       .  A
C1733      C1735   1.409       .  A
C1733      C1734   1.414       .  A
C1734      C1742   1.408       .  A
C1735      C1744   1.406       .  A
C1735      C1736   1.406       .  A
C1736      C1737   1.402       .  A
C1736      H1747   1.084       .  S
C1737      C1738   1.405       .  A
C1737      H1748   1.083       .  S
C1738      C1739   1.412       .  A
C1739      C1740   1.410       .  A
C1739      H1749   1.084       .  S
C1740      C1741   1.412       .  A
C1741      H1750   1.084       .  S
C1742      C1743   1.405       .  A
C1742      H1751   1.084   1_556  S
C1743      C1744   1.412       .  A
C1744      H1752   1.084       .  S
C1753      C1754   1.401       .  A
C1753      C1758   1.403       .  A
C1753      H1769   1.083       .  S
C1754      C1755   1.405       .  A
C1754      H1770   1.084       .  S
C1755      C1765   1.402       .  A
C1755      C1756   1.407       .  A
C1756      C1762   1.415       .  A
C1756      C1757   1.416       .  A
C1757      C1759   1.407       .  A
C1757      C1758   1.415       .  A
C1758      C1766   1.411       .  A
C1759      C1768   1.403       .  A
C1759      C1760   1.406       .  A
C1760      C1761   1.401       .  A
C1760      H1771   1.084       .  S
C1761      C1762   1.403       .  A
C1761      H1772   1.084       .  S
C1762      C1763   1.410       .  A
C1763      C1764   1.407       .  A
C1763      H1773   1.084       .  S
C1764      C1765   1.414       .  A
C1765      H1774   1.084       .  S
C1766      C1767   1.408       .  A
C1766      H1775   1.084       .  S
C1767      C1768   1.416       .  A
C1768      H1776   1.084       .  S
C1777      C1778   1.399       .  A
C1777      C1782   1.402       .  A
C1777      H1793   1.083       .  S
C1778      C1779   1.404       .  A
C1778      H1794   1.084       .  S
C1779      C1789   1.402       .  A
C1779      C1780   1.409       .  A
C1780      C1786   1.414       .  A
C1780      C1781   1.417       .  A
C1781      C1783   1.409       .  A
C1781      C1782   1.414       .  A
C1782      C1790   1.408       .  A
C1783      C1792   1.408       .  A
C1783      C1784   1.406       .  A
C1784      C1785   1.403       .  A
C1784      H1795   1.083       .  S
C1785      C1786   1.405       .  A
C1785      H1796   1.083       .  S
C1786      C1787   1.413       .  A
C1787      C1788   1.411       .  A
C1787      H1797   1.084       .  S
C1788      C1789   1.411       .  A
C1789      H1798   1.084       .  S
C1790      C1791   1.405       .  A
C1790      H1799   1.084       .  S
C1791      C1792   1.413       .  A
C1792      H1800   1.084       .  S
C1801      C1802   1.398       .  A
C1801      C1806   1.403       .  A
C1801      H1817   1.084       .  S
C1802      C1803   1.404       .  A
C1802      H1818   1.084       .  S
C1803      C1813   1.401       .  A
C1803      C1804   1.409       .  A
C1804      C1810   1.414       .  A
C1804      C1805   1.414       .  A
C1805      C1807   1.410       .  A
C1805      C1806   1.413       .  A
C1806      C1814   1.404       .  A
C1807      C1816   1.405       .  A
C1807      C1808   1.405       .  A
C1808      C1809   1.402       .  A
C1808      H1819   1.083       .  S
C1809      C1810   1.404       .  A
C1809      H1820   1.083       .  S
C1810      C1811   1.411       .  A
C1811      C1812   1.408       .  A
C1811      H1821   1.084       .  S
C1812      C1813   1.410       .  A
C1813      H1822   1.084       .  S
C1814      C1815   1.406       .  A
C1814      H1823   1.084       .  S
C1815      C1816   1.410       .  A
C1816      H1824   1.084       .  S
C1825      C1826   1.395       .  A
C1825      C1830   1.402       .  A
C1825      H1841   1.084       .  S
C1826      C1827   1.402       .  A
C1826      H1842   1.084       .  S
C1827      C1837   1.397       .  A
C1827      C1828   1.412       .  A
C1828      C1834   1.412       .  A
C1828      C1829   1.409       .  A
C1829      C1831   1.413       .  A
C1829      C1830   1.412       .  A
C1830      C1838   1.396       .  A
C1831      C1840   1.404       .  A
C1831      C1832   1.404       .  A
C1832      C1833   1.400       .  A
C1832      H1843   1.084       .  S
C1833      C1834   1.404       .  A
C1833      H1844   1.084       .  S
C1834      C1835   1.403       .  A
C1835      C1836   1.405       .  A
C1835      H1845   1.084       .  S
C1836      C1837   1.403       .  A
C1837      H1846   1.085       .  S
C1838      C1839   1.400       .  A
C1838      H1847   1.085       .  S
C1839      C1840   1.403       .  A
C1840      H1848   1.084       .  S
C1849      C1850   1.403       .  A
C1849      C1854   1.404       .  A
C1849      H1865   1.083       .  S
C1850      C1851   1.406       .  A
C1850      H1866   1.083       .  S
C1851      C1861   1.405       .  A
C1851      C1852   1.407       .  A
C1852      C1858   1.416       .  A
C1852      C1853   1.417       .  A
C1853      C1855   1.405       .  A
C1853      C1854   1.416       .  A
C1854      C1862   1.416       .  A
C1855      C1864   1.400       .  A
C1855      C1856   1.405       .  A
C1856      C1857   1.399       .  A
C1856      H1867   1.084       .  S
C1857      C1858   1.402       .  A
C1857      H1868   1.084       .  S
C1858      C1859   1.410       .  A
C1859      C1860   1.406       .  A
C1859      H1869   1.084       .  S
C1860      C1861   1.415       .  A
C1861      H1870   1.084       .  S
C1862      C1863   1.409       .  A
C1862      H1871   1.084       .  S
C1863      C1864   1.416       .  A
C1864      H1872   1.084       .  S
C1873      C1874   1.401       .  A
C1873      C1878   1.405       .  A
C1873      H1889   1.084       .  S
C1874      C1875   1.404       .  A
C1874      H1890   1.083       .  S
C1875      C1885   1.409       .  A
C1875      C1876   1.414       .  A
C1876      C1882   1.409       .  A
C1876      C1877   1.413       .  A
C1877      C1879   1.413       .  A
C1877      C1878   1.409       .  A
C1878      C1886   1.404       .  A
C1879      C1888   1.403       .  A
C1879      C1880   1.402       .  A
C1880      C1881   1.397       .  A
C1880      H1891   1.084       .  S
C1881      C1882   1.403       .  A
C1881      H1892   1.084       .  S
C1882      C1883   1.398       .  A
C1883      C1884   1.407       .  A
C1883      H1893   1.085       .  S
C1884      C1885   1.407       .  A
C1885      H1894   1.084       .  S
C1886      C1887   1.411       .  A
C1886      H1895   1.084       .  S
C1887      C1888   1.406       .  A
C1888      H1896   1.084       .  S
C1897      C1898   1.400       .  A
C1897      C1902   1.405       .  A
C1897      H1913   1.084       .  S
C1898      C1899   1.404       .  A
C1898      H1914   1.083       .  S
C1899      C1909   1.409       .  A
C1899      C1900   1.414       .  A
C1900      C1906   1.409   1_556  A
C1900      C1901   1.414   1_556  A
C1901      C1903   1.414       .  A
C1901      C1902   1.409   1_554  A
C1902      C1910   1.402   1_556  A
C1903      C1912   1.407       .  A
C1903      C1904   1.403       .  A
C1904      C1905   1.399       .  A
C1904      H1915   1.084       .  S
C1905      C1906   1.404       .  A
C1905      H1916   1.084       .  S
C1906      C1907   1.402   1_554  A
C1907      C1908   1.410       .  A
C1907      H1917   1.084   1_556  S
C1908      C1909   1.407       .  A
C1909      H1918   1.084       .  S
C1910      C1911   1.410       .  A
C1910      H1919   1.084       .  S
C1911      C1912   1.405       .  A
C1912      H1920   1.084       .  S
C1921      C1922   1.399       .  A
C1921      C1926   1.404       .  A
C1921      H1937   1.084       .  S
C1922      C1923   1.403       .  A
C1922      H1938   1.084       .  S
C1923      C1933   1.406       .  A
C1923      C1924   1.413       .  A
C1924      C1930   1.410       .  A
C1924      C1925   1.417       .  A
C1925      C1927   1.413       .  A
C1925      C1926   1.409       .  A
C1926      C1934   1.403       .  A
C1927      C1936   1.412       .  A
C1927      C1928   1.405       .  A
C1928      C1929   1.403       .  A
C1928      H1939   1.083       .  S
C1929      C1930   1.405       .  A
C1929      H1940   1.083       .  S
C1930      C1931   1.409       .  A
C1931      C1932   1.411       .  A
C1931      H1941   1.084       .  S
C1932      C1933   1.407       .  A
C1933      H1942   1.084       .  S
C1934      C1935   1.411       .  A
C1934      H1943   1.084       .  S
C1935      C1936   1.410       .  A
C1936      H1944   1.084       .  S
C1945      C1946   1.403       .  A
C1945      C1950   1.405       .  A
C1945      H1961   1.083       .  S
C1946      C1947   1.405       .  A
C1946      H1962   1.083       .  S
C1947      C1957   1.409       .  A
C1947      C1948   1.410       .  A
C1948      C1954   1.412       .  A
C1948      C1949   1.418       .  A
C1949      C1951   1.410       .  A
C1949      C1950   1.413       .  A
C1950      C1958   1.411       .  A
C1951      C1960   1.405       .  A
C1951      C1952   1.404       .  A
C1952      C1953   1.400       .  A
C1952      H1963   1.084       .  S
C1953      C1954   1.404       .  A
C1953      H1964   1.084       .  S
C1954      C1955   1.408       .  A
C1955      C1956   1.409       .  A
C1955      H1965   1.084       .  S
C1956      C1957   1.412       .  A
C1957      H1966   1.084       .  S
C1958      C1959   1.410       .  A
C1958      H1967   1.084       .  S
C1959      C1960   1.411       .  A
C1960      H1968   1.084       .  S
C1969      C1970   1.401       .  A
C1969      C1974   1.405       .  A
C1969      H1985   1.084       .  S
C1970      C1971   1.404       .  A
C1970      H1986   1.083       .  S
C1971      C1981   1.409       .  A
C1971      C1972   1.413       .  A
C1972      C1978   1.409       .  A
C1972      C1973   1.416       .  A
C1973      C1975   1.413       .  A
C1973      C1974   1.409       .  A
C1974      C1982   1.405       .  A
C1975      C1984   1.409       .  A
C1975      C1976   1.404       .  A
C1976      C1977   1.401       .  A
C1976      H1987   1.084       .  S
C1977      C1978   1.405       .  A
C1977      H1988   1.084       .  S
C1978      C1979   1.405       .  A
C1979      C1980   1.413       .  A
C1979      H1989   1.084       .  S
C1980      C1981   1.409       .  A
C1981      H1990   1.084       .  S
C1982      C1983   1.411       .  A
C1982      H1991   1.084       .  S
C1983      C1984   1.410       .  A
C1984      H1992   1.084       .  S
C1993      C1994   1.399       .  A
C1993      C1998   1.403       .  A
C1993      H2009   1.084       .  S
C1994      C1995   1.403       .  A
C1994      H2010   1.084       .  S
C1995      C2005   1.404       .  A
C1995      C1996   1.413       .  A
C1996      C2002   1.412       .  A
C1996      C1997   1.412       .  A
C1997      C1999   1.413       .  A
C1997      C1998   1.412       .  A
C1998      C2006   1.402       .  A
C1999      C2008   1.406       .  A
C1999      C2000   1.404       .  A
C2000      C2001   1.401       .  A
C2000      H2011   1.084       .  S
C2001      C2002   1.404       .  A
C2001      H2012   1.084       .  S
C2002      C2003   1.405       .  A
C2003      C2004   1.406       .  A
C2003      H2013   1.085       .  S
C2004      C2005   1.404       .  A
C2005      H2014   1.084       .  S
C2006      C2007   1.404       .  A
C2006      H2015   1.085       .  S
C2007      C2008   1.406       .  A
C2008      H2016   1.084       .  S
C2017      C2018   1.400       .  A
C2017      C2022   1.405       .  A
C2017      H2033   1.084       .  S
C2018      C2019   1.404       .  A
C2018      H2034   1.083       .  S
C2019      C2029   1.411       .  A
C2019      C2020   1.414       .  A
C2020      C2026   1.409       .  A
C2020      C2021   1.419       .  A
C2021      C2023   1.414       .  A
C2021      C2022   1.408       .  A
C2022      C2030   1.404       .  A
C2023      C2032   1.415       .  A
C2023      C2024   1.405       .  A
C2024      C2025   1.404       .  A
C2024      H2035   1.083       .  S
C2025      C2026   1.406       .  A
C2025      H2036   1.083       .  S
C2026      C2027   1.409       .  A
C2027      C2028   1.413       .  A
C2027      H2037   1.084       .  S
C2028      C2029   1.408       .  A
C2029      H2038   1.084       .  S
C2030      C2031   1.412       .  A
C2030      H2039   1.084       .  S
C2031      C2032   1.410       .  A
C2032      H2040   1.084       .  S
C2041      C2042   1.402       .  A
C2041      C2046   1.404       .  A
C2041      H2057   1.083       .  S
C2042      C2043   1.405       .  A
C2042      H2058   1.083       .  S
C2043      C2053   1.407       .  A
C2043      C2044   1.411       .  A
C2044      C2050   1.412       .  A
C2044      C2045   1.416       .  A
C2045      C2047   1.411       .  A
C2045      C2046   1.413       .  A
C2046      C2054   1.409       .  A
C2047      C2056   1.405       .  A
C2047      C2048   1.404       .  A
C2048      C2049   1.400       .  A
C2048      H2059   1.084       .  S
C2049      C2050   1.404       .  A
C2049      H2060   1.084       .  S
C2050      C2051   1.406       .  A
C2051      C2052   1.408       .  A
C2051      H2061   1.084       .  S
C2052      C2053   1.412       .  A
C2053      H2062   1.084       .  S
C2054      C2055   1.408       .  A
C2054      H2063   1.084       .  S
C2055      C2056   1.409       .  A
C2056      H2064   1.084       .  S
C2065      C2066   1.401       .  A
C2065      C2070   1.404       .  A
C2065      H2081   1.083       .  S
C2066      C2067   1.405       .  A
C2066      H2082   1.083       .  S
C2067      C2077   1.405       .  A
C2067      C2068   1.410       .  A
C2068      C2074   1.413       .  A
C2068      C2069   1.415       .  A
C2069      C2071   1.410       .  A
C2069      C2070   1.414       .  A
C2070      C2078   1.408       .  A
C2071      C2080   1.403       .  A
C2071      C2072   1.404       .  A
C2072      C2073   1.400       .  A
C2072      H2083   1.084       .  S
C2073      C2074   1.404       .  A
C2073      H2084   1.084       .  S
C2074      C2075   1.406       .  A
C2075      C2076   1.408       .  A
C2075      H2085   1.084       .  S
C2076      C2077   1.411       .  A
C2077      H2086   1.084       .  S
C2078      C2079   1.406       .  A
C2078      H2087   1.084       .  S
C2079      C2080   1.409       .  A
C2080      H2088   1.085       .  S
C2089      C2090   1.400       .  A
C2089      C2094   1.403       .  A
C2089      H2105   1.084       .  S
C2090      C2091   1.405       .  A
C2090      H2106   1.084       .  S
C2091      C2101   1.403       .  A
C2091      C2092   1.409       .  A
C2092      C2098   1.413       .  A
C2092      C2093   1.415       .  A
C2093      C2095   1.408       .  A
C2093      C2094   1.414       .  A
C2094      C2102   1.408       .  A
C2095      C2104   1.403       .  A
C2095      C2096   1.405       .  A
C2096      C2097   1.400       .  A
C2096      H2107   1.084       .  S
C2097      C2098   1.403       .  A
C2097      H2108   1.084       .  S
C2098      C2099   1.408       .  A
C2099      C2100   1.408       .  A
C2099      H2109   1.084       .  S
C2100      C2101   1.412       .  A
C2101      H2110   1.084       .  S
C2102      C2103   1.408       .  A
C2102      H2111   1.084       .  S
C2103      C2104   1.412       .  A
C2104      H2112   1.084       .  S
C2113      C2114   1.400       .  A
C2113      C2118   1.405       .  A
C2113      H2129   1.084       .  S
C2114      C2115   1.403       .  A
C2114      H2130   1.084       .  S
C2115      C2125   1.407       .  A
C2115      C2116   1.413   1_554  A
C2116      C2122   1.410       .  A
C2116      C2117   1.417       .  A
C2117      C2119   1.414       .  A
C2117      C2118   1.409   1_556  A
C2118      C2126   1.403   1_554  A
C2119      C2128   1.413       .  A
C2119      C2120   1.404       .  A
C2120      C2121   1.403       .  A
C2120      H2131   1.083       .  S
C2121      C2122   1.405       .  A
C2121      H2132   1.083       .  S
C2122      C2123   1.408       .  A
C2123      C2124   1.411   1_556  A
C2123      H2133   1.084   1_565  S
C2124      C2125   1.408       .  A
C2125      H2134   1.084       .  S
C2126      C2127   1.413       .  A
C2126      H2135   1.084   1_556  S
C2127      C2128   1.409       .  A
C2128      H2136   1.084       .  S
C2137      C2138   1.399       .  A
C2137      C2142   1.403       .  A
C2137      H2153   1.084       .  S
C2138      C2139   1.405       .  A
C2138      H2154   1.084       .  S
C2139      C2149   1.401       .  A
C2139      C2140   1.407       .  A
C2140      C2146   1.415       .  A
C2140      C2141   1.415       .  A
C2141      C2143   1.407       .  A
C2141      C2142   1.414       .  A
C2142      C2150   1.408       .  A
C2143      C2152   1.403       .  A
C2143      C2144   1.406       .  A
C2144      C2145   1.401       .  A
C2144      H2155   1.084       .  S
C2145      C2146   1.403       .  A
C2145      H2156   1.084       .  S
C2146      C2147   1.411       .  A
C2147      C2148   1.407       .  A
C2147      H2157   1.084       .  S
C2148      C2149   1.413       .  A
C2149      H2158   1.084       .  S
C2150      C2151   1.407       .  A
C2150      H2159   1.084       .  S
C2151      C2152   1.415       .  A
C2152      H2160   1.084       .  S
C2161      C2162   1.399       .  A
C2161      C2166   1.403       .  A
C2161      H2177   1.084       .  S
C2162      C2163   1.403       .  A
C2162      H2178   1.084       .  S
C2163      C2173   1.402       .  A
C2163      C2164   1.413       .  A
C2164      C2170   1.412       .  A
C2164      C2165   1.409       .  A
C2165      C2167   1.413       .  A
C2165      C2166   1.412       .  A
C2166      C2174   1.401       .  A
C2167      C2176   1.401       .  A
C2167      C2168   1.403       .  A
C2168      C2169   1.397       .  A
C2168      H2179   1.084       .  S
C2169      C2170   1.403       .  A
C2169      H2180   1.084       .  S
C2170      C2171   1.399       .  A
C2171      C2172   1.402       .  A
C2171      H2181   1.085   1_554  S
C2172      C2173   1.404       .  A
C2173      H2182   1.084       .  S
C2174      C2175   1.403       .  A
C2174      H2183   1.085       .  S
C2175      C2176   1.402       .  A
C2176      H2184   1.085       .  S
C2185      C2186   1.400       .  A
C2185      C2190   1.404       .  A
C2185      H2201   1.084       .  S
C2186      C2187   1.403       .  A
C2186      H2202   1.084       .  S
C2187      C2197   1.406       .  A
C2187      C2188   1.413       .  A
C2188      C2194   1.409       .  A
C2188      C2189   1.413       .  A
C2189      C2191   1.413       .  A
C2189      C2190   1.409       .  A
C2190      C2198   1.403       .  A
C2191      C2200   1.406       .  A
C2191      C2192   1.403       .  A
C2192      C2193   1.399       .  A
C2192      H2203   1.084       .  S
C2193      C2194   1.404       .  A
C2193      H2204   1.084       .  S
C2194      C2195   1.402       .  A
C2195      C2196   1.411       .  A
C2195      H2205   1.084       .  S
C2196      C2197   1.408       .  A
C2197      H2206   1.084       .  S
C2198      C2199   1.410       .  A
C2198      H2207   1.084       .  S
C2199      C2200   1.408       .  A
C2200      H2208   1.084       .  S
C2209      C2210   1.401       .  A
C2209      C2214   1.405       .  A
C2209      H2225   1.083       .  S
C2210      C2211   1.403       .  A
C2210      H2226   1.083       .  S
C2211      C2221   1.410       .  A
C2211      C2212   1.414       .  A
C2212      C2218   1.410       .  A
C2212      C2213   1.419       .  A
C2213      C2215   1.413       .  A
C2213      C2214   1.410       .  A
C2214      C2222   1.406       .  A
C2215      C2224   1.414       .  A
C2215      C2216   1.406       .  A
C2216      C2217   1.404       .  A
C2216      H2227   1.083       .  S
C2217      C2218   1.406       .  A
C2217      H2228   1.084       .  S
C2218      C2219   1.410       .  A
C2219      C2220   1.414       .  A
C2219      H2229   1.084       .  S
C2220      C2221   1.407       .  A
C2221      H2230   1.084       .  S
C2222      C2223   1.411       .  A
C2222      H2231   1.084       .  S
C2223      C2224   1.412       .  A
C2224      H2232   1.084       .  S
C2233      C2234   1.400       .  A
C2233      C2238   1.404       .  A
C2233      H2249   1.084       .  S
C2234      C2235   1.404       .  A
C2234      H2250   1.084       .  S
C2235      C2245   1.407       .  A
C2235      C2236   1.412       .  A
C2236      C2242   1.411       .  A
C2236      C2237   1.417       .  A
C2237      C2239   1.413       .  A
C2237      C2238   1.410       .  A
C2238      C2246   1.404       .  A
C2239      C2248   1.411       .  A
C2239      C2240   1.405       .  A
C2240      C2241   1.403       .  A
C2240      H2251   1.083       .  S
C2241      C2242   1.406       .  A
C2241      H2252   1.083       .  S
C2242      C2243   1.409       .  A
C2243      C2244   1.412       .  A
C2243      H2253   1.084       .  S
C2244      C2245   1.408       .  A
C2245      H2254   1.084       .  S
C2246      C2247   1.411       .  A
C2246      H2255   1.084       .  S
C2247      C2248   1.410       .  A
C2248      H2256   1.084       .  S
C2257      C2258   1.399       .  A
C2257      C2262   1.405       .  A
C2257      H2273   1.084       .  S
C2258      C2259   1.402       .  A
C2258      H2274   1.084       .  S
C2259      C2269   1.408       .  A
C2259      C2260   1.414       .  A
C2260      C2266   1.407       .  A
C2260      C2261   1.415       .  A
C2261      C2263   1.415       .  A
C2261      C2262   1.407       .  A
C2262      C2270   1.400       .  A
C2263      C2272   1.410       .  A
C2263      C2264   1.403       .  A
C2264      C2265   1.401       .  A
C2264      H2275   1.084       .  S
C2265      C2266   1.406       .  A
C2265      H2276   1.084       .  S
C2266      C2267   1.403       .  A
C2267      C2268   1.415       .  A
C2267      H2277   1.084       .  S
C2268      C2269   1.406       .  A
C2269      H2278   1.084       .  S
C2270      C2271   1.413       .  A
C2270      H2279   1.084       .  S
C2271      C2272   1.408       .  A
C2272      H2280   1.084       .  S
C2281      C2282   1.401       .  A
C2281      C2286   1.406       .  A
C2281      H2297   1.084       .  S
C2282      C2283   1.404       .  A
C2282      H2298   1.083       .  S
C2283      C2293   1.411       .  A
C2283      C2284   1.415       .  A
C2284      C2290   1.408       .  A
C2284      C2285   1.417       .  A
C2285      C2287   1.415       .  A
C2285      C2286   1.407       .  A
C2286      C2294   1.404       .  A
C2287      C2296   1.412       .  A
C2287      C2288   1.403       .  A
C2288      C2289   1.401       .  A
C2288      H2299   1.083       .  S
C2289      C2290   1.405       .  A
C2289      H2300   1.084       .  S
C2290      C2291   1.404       .  A
C2291      C2292   1.411       .  A
C2291      H2301   1.084       .  S
C2292      C2293   1.407       .  A
C2293      H2302   1.084       .  S
C2294      C2295   1.414       .  A
C2294      H2303   1.084       .  S
C2295      C2296   1.408       .  A
C2296      H2304   1.084   1_554  S
C2305      C2306   1.401       .  A
C2305      C2310   1.404       .  A
C2305      H2321   1.084       .  S
C2306      C2307   1.405       .  A
C2306      H2322   1.084       .  S
C2307      C2317   1.405       .  A
C2307      C2308   1.409       .  A
C2308      C2314   1.414       .  A
C2308      C2309   1.417       .  A
C2309      C2311   1.409       .  A
C2309      C2310   1.413       .  A
C2310      C2318   1.409       .  A
C2311      C2320   1.405       .  A
C2311      C2312   1.405       .  A
C2312      C2313   1.401       .  A
C2312      H2323   1.083       .  S
C2313      C2314   1.404       .  A
C2313      H2324   1.083       .  S
C2314      C2315   1.411       .  A
C2315      C2316   1.407       .  A
C2315      H2325   1.084       .  S
C2316      C2317   1.412       .  A
C2317      H2326   1.084       .  S
C2318      C2319   1.409       .  A
C2318      H2327   1.084       .  S
C2319      C2320   1.411       .  A
C2320      H2328   1.084       .  S
C2329      C2330   1.399       .  A
C2329      C2334   1.403       .  A
C2329      H2345   1.084       .  S
C2330      C2331   1.404       .  A
C2330      H2346   1.084       .  S
C2331      C2341   1.403       .  A
C2331      C2332   1.412       .  A
C2332      C2338   1.412       .  A
C2332      C2333   1.411       .  A
C2333      C2335   1.412       .  A
C2333      C2334   1.413       .  A
C2334      C2342   1.403       .  A
C2335      C2344   1.401       .  A
C2335      C2336   1.403       .  A
C2336      C2337   1.398       .  A
C2336      H2347   1.084       .  S
C2337      C2338   1.403       .  A
C2337      H2348   1.084       .  S
C2338      C2339   1.402       .  A
C2339      C2340   1.403       .  A
C2339      H2349   1.085       .  S
C2340      C2341   1.404       .  A
C2341      H2350   1.085       .  S
C2342      C2343   1.403       .  A
C2342      H2351   1.084       .  S
C2343      C2344   1.403       .  A
C2344      H2352   1.085       .  S
C2353      C2354   1.397       .  A
C2353      C2358   1.401       .  A
C2353      H2369   1.084       .  S
C2354      C2355   1.404       .  A
C2354      H2370   1.084       .  S
C2355      C2365   1.398       .  A
C2355      C2356   1.406       .  A
C2356      C2362   1.415       .  A
C2356      C2357   1.414       .  A
C2357      C2359   1.408       .  A
C2357      C2358   1.415       .  A
C2358      C2366   1.405       .  A
C2359      C2368   1.404       .  A
C2359      C2360   1.406       .  A
C2360      C2361   1.402       .  A
C2360      H2371   1.083       .  S
C2361      C2362   1.404       .  A
C2361      H2372   1.083       .  S
C2362      C2363   1.412       .  A
C2363      C2364   1.408       .  A
C2363      H2373   1.084       .  S
C2364      C2365   1.414       .  A
C2365      H2374   1.084       .  S
C2366      C2367   1.404       .  A
C2366      H2375   1.084       .  S
C2367      C2368   1.414       .  A
C2368      H2376   1.084       .  S
C2377      C2378   1.400       .  A
C2377      C2382   1.404       .  A
C2377      H2393   1.083       .  S
C2378      C2379   1.403       .  A
C2378      H2394   1.084       .  S
C2379      C2389   1.408       .  A
C2379      C2380   1.412       .  A
C2380      C2386   1.410       .  A
C2380      C2381   1.417       .  A
C2381      C2383   1.413       .  A
C2381      C2382   1.410       .  A
C2382      C2390   1.406       .  A
C2383      C2392   1.411       .  A
C2383      C2384   1.405       .  A
C2384      C2385   1.403       .  A
C2384      H2395   1.083       .  S
C2385      C2386   1.406       .  A
C2385      H2396   1.083       .  S
C2386      C2387   1.408       .  A
C2387      C2388   1.414       .  A
C2387      H2397   1.084       .  S
C2388      C2389   1.408       .  A
C2389      H2398   1.084       .  S
C2390      C2391   1.409       .  A
C2390      H2399   1.084       .  S
C2391      C2392   1.409       .  A
C2392      H2400   1.084       .  S
C2401      C2402   1.398       .  A
C2401      C2406   1.403       .  A
C2401      H2417   1.084       .  S
C2402      C2403   1.403       .  A
C2402      H2418   1.084       .  S
C2403      C2413   1.403       .  A
C2403      C2404   1.413       .  A
C2404      C2410   1.410       .  A
C2404      C2405   1.414       .  A
C2405      C2407   1.414       .  A
C2405      C2406   1.409       .  A
C2406      C2414   1.400       .  A
C2407      C2416   1.409       .  A
C2407      C2408   1.404       .  A
C2408      C2409   1.402       .  A
C2408      H2419   1.083       .  S
C2409      C2410   1.405       .  A
C2409      H2420   1.083       .  S
C2410      C2411   1.406       .  A
C2411      C2412   1.410       .  A
C2411      H2421   1.084       .  S
C2412      C2413   1.406       .  A
C2413      H2422   1.084       .  S
C2414      C2415   1.409       .  A
C2414      H2423   1.085       .  S
C2415      C2416   1.408       .  A
C2416      H2424   1.084       .  S
C2425      C2426   1.396       .  A
C2425      C2430   1.402       .  A
C2425      H2441   1.084       .  S
C2426      C2427   1.402       .  A
C2426      H2442   1.084       .  S
C2427      C2437   1.398   1_655  A
C2427      C2428   1.412       .  A
C2428      C2434   1.413   1_655  A
C2428      C2429   1.411       .  A
C2429      C2431   1.413       .  A
C2429      C2430   1.411       .  A
C2430      C2438   1.399       .  A
C2431      C2440   1.407       .  A
C2431      C2432   1.405   1_655  A
C2432      C2433   1.402       .  A
C2432      H2443   1.084       .  S
C2433      C2434   1.404       .  A
C2433      H2444   1.083       .  S
C2434      C2435   1.407       .  A
C2435      C2436   1.405       .  A
C2435      H2445   1.084       .  S
C2436      C2437   1.400       .  A
C2437      H2446   1.085       .  S
C2438      C2439   1.403       .  A
C2438      H2447   1.085       .  S
C2439      C2440   1.407       .  A
C2440      H2448   1.084       .  S
C2449      C2450   1.400       .  A
C2449      C2454   1.403       .  A
C2449      H2465   1.083       .  S
C2450      C2451   1.404       .  A
C2450      H2466   1.084       .  S
C2451      C2461   1.402       .  A
C2451      C2452   1.410       .  A
C2452      C2458   1.413   1_554  A
C2452      C2453   1.413       .  A
C2453      C2455   1.410       .  A
C2453      C2454   1.413       .  A
C2454      C2462   1.407       .  A
C2455      C2464   1.402       .  A
C2455      C2456   1.404   1_554  A
C2456      C2457   1.399       .  A
C2456      H2467   1.084       .  S
C2457      C2458   1.403       .  A
C2457      H2468   1.084       .  S
C2458      C2459   1.405       .  A
C2459      C2460   1.407       .  A
C2459      H2469   1.084       .  S
C2460      C2461   1.410   1_556  A
C2461      H2470   1.084       .  S
C2462      C2463   1.406       .  A
C2462      H2471   1.084       .  S
C2463      C2464   1.408       .  A
C2464      H2472   1.085   1_554  S
C2473      C2474   1.402       .  A
C2473      C2478   1.405       .  A
C2473      H2489   1.083       .  S
C2474      C2475   1.404       .  A
C2474      H2490   1.083       .  S
C2475      C2485   1.411       .  A
C2475      C2476   1.414       .  A
C2476      C2482   1.409       .  A
C2476      C2477   1.415       .  A
C2477      C2479   1.413   1_556  A
C2477      C2478   1.410       .  A
C2478      C2486   1.406       .  A
C2479      C2488   1.404       .  A
C2479      C2480   1.403       .  A
C2480      C2481   1.398       .  A
C2480      H2491   1.084       .  S
C2481      C2482   1.404   1_554  A
C2481      H2492   1.084       .  S
C2482      C2483   1.400       .  A
C2483      C2484   1.411       .  A
C2483      H2493   1.084       .  S
C2484      C2485   1.408       .  A
C2485      H2494   1.084       .  S
C2486      C2487   1.409   1_556  A
C2486      H2495   1.084   1_455  S
C2487      C2488   1.407       .  A
C2488      H2496   1.084       .  S
C2497      C2498   1.400       .  A
C2497      C2502   1.404       .  A
C2497      H2513   1.084       .  S
C2498      C2499   1.405       .  A
C2498      H2514   1.084       .  S
C2499      C2509   1.404       .  A
C2499      C2500   1.410       .  A
C2500      C2506   1.413       .  A
C2500      C2501   1.415       .  A
C2501      C2503   1.410       .  A
C2501      C2502   1.413       .  A
C2502      C2510   1.407       .  A
C2503      C2512   1.404       .  A
C2503      C2504   1.404       .  A
C2504      C2505   1.400       .  A
C2504      H2515   1.084       .  S
C2505      C2506   1.403       .  A
C2505      H2516   1.084       .  S
C2506      C2507   1.406       .  A
C2507      C2508   1.408       .  A
C2507      H2517   1.084       .  S
C2508      C2509   1.412       .  A
C2509      H2518   1.084       .  S
C2510      C2511   1.409       .  A
C2510      H2519   1.084       .  S
C2511      C2512   1.411       .  A
C2512      H2520   1.084       .  S
C2521      C2522   1.399       .  A
C2521      C2526   1.402       .  A
C2521      H2537   1.084       .  S
C2522      C2523   1.405       .  A
C2522      H2538   1.084       .  S
C2523      C2533   1.399   1_455  A
C2523      C2524   1.406       .  A
C2524      C2530   1.416       .  A
C2524      C2525   1.416       .  A
C2525      C2527   1.407       .  A
C2525      C2526   1.415       .  A
C2526      C2534   1.409       .  A
C2527      C2536   1.404       .  A
C2527      C2528   1.406       .  A
C2528      C2529   1.402       .  A
C2528      H2539   1.083       .  S
C2529      C2530   1.404       .  A
C2529      H2540   1.083       .  S
C2530      C2531   1.413   1_455  A
C2531      C2532   1.409       .  A
C2531      H2541   1.084       .  S
C2532      C2533   1.415       .  A
C2533      H2542   1.084       .  S
C2534      C2535   1.406       .  A
C2534      H2543   1.084       .  S
C2535      C2536   1.415       .  A
C2536      H2544   1.084       .  S
C2545      C2546   1.401       .  A
C2545      C2550   1.405       .  A
C2545      H2561   1.084       .  S
C2546      C2547   1.404       .  A
C2546      H2562   1.084       .  S
C2547      C2557   1.409       .  A
C2547      C2548   1.414       .  A
C2548      C2554   1.409       .  A
C2548      C2549   1.417       .  A
C2549      C2551   1.414       .  A
C2549      C2550   1.408       .  A
C2550      C2558   1.404       .  A
C2551      C2560   1.412       .  A
C2551      C2552   1.404       .  A
C2552      C2553   1.402       .  A
C2552      H2563   1.083       .  S
C2553      C2554   1.405       .  A
C2553      H2564   1.083       .  S
C2554      C2555   1.406       .  A
C2555      C2556   1.412       .  A
C2555      H2565   1.084       .  S
C2556      C2557   1.408       .  A
C2557      H2566   1.084       .  S
C2558      C2559   1.413       .  A
C2558      H2567   1.084       .  S
C2559      C2560   1.409       .  A
C2560      H2568   1.084       .  S
C2569      C2570   1.403       .  A
C2569      C2574   1.405       .  A
C2569      H2585   1.083       .  S
C2570      C2571   1.406       .  A
C2570      H2586   1.083       .  S
C2571      C2581   1.410       .  A
C2571      C2572   1.410       .  A
C2572      C2578   1.412       .  A
C2572      C2573   1.419       .  A
C2573      C2575   1.410       .  A
C2573      C2574   1.413       .  A
C2574      C2582   1.412       .  A
C2575      C2584   1.406       .  A
C2575      C2576   1.405       .  A
C2576      C2577   1.401       .  A
C2576      H2587   1.084       .  S
C2577      C2578   1.404       .  A
C2577      H2588   1.084       .  S
C2578      C2579   1.409       .  A
C2579      C2580   1.409       .  A
C2579      H2589   1.084       .  S
C2580      C2581   1.413       .  A
C2581      H2590   1.084       .  S
C2582      C2583   1.410       .  A
C2582      H2591   1.084       .  S
C2583      C2584   1.411       .  A
C2584      H2592   1.084       .  S
C2593      C2594   1.401       .  A
C2593      C2598   1.404       .  A
C2593      H2609   1.084       .  S
C2594      C2595   1.405       .  A
C2594      H2610   1.084       .  S
C2595      C2605   1.406       .  A
C2595      C2596   1.409       .  A
C2596      C2602   1.413       .  A
C2596      C2597   1.417       .  A
C2597      C2599   1.409       .  A
C2597      C2598   1.413       .  A
C2598      C2606   1.410       .  A
C2599      C2608   1.406       .  A
C2599      C2600   1.405       .  A
C2600      C2601   1.402       .  A
C2600      H2611   1.083       .  S
C2601      C2602   1.404       .  A
C2601      H2612   1.084       .  S
C2602      C2603   1.411       .  A
C2603      C2604   1.410       .  A
C2603      H2613   1.084       .  S
C2604      C2605   1.413       .  A
C2605      H2614   1.084       .  S
C2606      C2607   1.409       .  A
C2606      H2615   1.084       .  S
C2607      C2608   1.413       .  A
C2608      H2616   1.084       .  S
C2617      C2618   1.399       .  A
C2617      C2622   1.403       .  A
C2617      H2633   1.084       .  S
C2618      C2619   1.403       .  A
C2618      H2634   1.084       .  S
C2619      C2629   1.402       .  A
C2619      C2620   1.412       .  A
C2620      C2626   1.412       .  A
C2620      C2621   1.412       .  A
C2621      C2623   1.413       .  A
C2621      C2622   1.412       .  A
C2622      C2630   1.402       .  A
C2623      C2632   1.404       .  A
C2623      C2624   1.403       .  A
C2624      C2625   1.400       .  A
C2624      H2635   1.084       .  S
C2625      C2626   1.404       .  A
C2625      H2636   1.084       .  S
C2626      C2627   1.404       .  A
C2627      C2628   1.405       .  A
C2627      H2637   1.085       .  S
C2628      C2629   1.405       .  A
C2629      H2638   1.084       .  S
C2630      C2631   1.403       .  A
C2630      H2639   1.085   1_556  S
C2631      C2632   1.404       .  A
C2632      H2640   1.084       .  S
C2641      C2642   1.401       .  A
C2641      C2646   1.404       .  A
C2641      H2657   1.084       .  S
C2642      C2643   1.406       .  A
C2642      H2658   1.084       .  S
C2643      C2653   1.404       .  A
C2643      C2644   1.409       .  A
C2644      C2650   1.414   1_455  A
C2644      C2645   1.414   1_455  A
C2645      C2647   1.409       .  A
C2645      C2646   1.414   1_655  A
C2646      C2654   1.409   1_455  A
C2647      C2656   1.400       .  A
C2647      C2648   1.403       .  A
C2648      C2649   1.398       .  A
C2648      H2659   1.084       .  S
C2649      C2650   1.402       .  A
C2649      H2660   1.084       .  S
C2650      C2651   1.405       .  A
C2651      C2652   1.405   1_655  A
C2651      H2661   1.084       .  S
C2652      C2653   1.413       .  A
C2653      H2662   1.084       .  S
C2654      C2655   1.407       .  A
C2654      H2663   1.084   1_655  S
C2655      C2656   1.407       .  A
C2656      H2664   1.085       .  S
C2665      C2666   1.397       .  A
C2665      C2670   1.402       .  A
C2665      H2681   1.084       .  S
C2666      C2667   1.403       .  A
C2666      H2682   1.084       .  S
C2667      C2677   1.399       .  A
C2667      C2668   1.409       .  A
C2668      C2674   1.413       .  A
C2668      C2669   1.413       .  A
C2669      C2671   1.410       .  A
C2669      C2670   1.413       .  A
C2670      C2678   1.403       .  A
C2671      C2680   1.406       .  A
C2671      C2672   1.405       .  A
C2672      C2673   1.402       .  A
C2672      H2683   1.083       .  S
C2673      C2674   1.404       .  A
C2673      H2684   1.083       .  S
C2674      C2675   1.409       .  A
C2675      C2676   1.408       .  A
C2675      H2685   1.084       .  S
C2676      C2677   1.408       .  A
C2677      H2686   1.085       .  S
C2678      C2679   1.406       .  A
C2678      H2687   1.084       .  S
C2679      C2680   1.411       .  A
C2680      H2688   1.084   1_565  S
C2689      C2690   1.401       .  A
C2689      C2694   1.405       .  A
C2689      H2705   1.084       .  S
C2690      C2691   1.404       .  A
C2690      H2706   1.083       .  S
C2691      C2701   1.410       .  A
C2691      C2692   1.414       .  A
C2692      C2698   1.408       .  A
C2692      C2693   1.416       .  A
C2693      C2695   1.415       .  A
C2693      C2694   1.409       .  A
C2694      C2702   1.404       .  A
C2695      C2704   1.410       .  A
C2695      C2696   1.403       .  A
C2696      C2697   1.400       .  A
C2696      H2707   1.083       .  S
C2697      C2698   1.405       .  A
C2697      H2708   1.084       .  S
C2698      C2699   1.403       .  A
C2699      C2700   1.412       .  A
C2699      H2709   1.084   1_655  S
C2700      C2701   1.408       .  A
C2701      H2710   1.084       .  S
C2702      C2703   1.411       .  A
C2702      H2711   1.085       .  S
C2703      C2704   1.406       .  A
C2704      H2712   1.084       .  S
C2713      C2714   1.398       .  A
C2713      C2718   1.404       .  A
C2713      H2729   1.084       .  S
C2714      C2715   1.402       .  A
C2714      H2730   1.084       .  S
C2715      C2725   1.404       .  A
C2715      C2716   1.413       .  A
C2716      C2722   1.409       .  A
C2716      C2717   1.414       .  A
C2717      C2719   1.413       .  A
C2717      C2718   1.408       .  A
C2718      C2726   1.400       .  A
C2719      C2728   1.410       .  A
C2719      C2720   1.404       .  A
C2720      C2721   1.402       .  A
C2720      H2731   1.083       .  S
C2721      C2722   1.405       .  A
C2721      H2732   1.084       .  S
C2722      C2723   1.406       .  A
C2723      C2724   1.412       .  A
C2723      H2733   1.084       .  S
C2724      C2725   1.407       .  A
C2725      H2734   1.084       .  S
C2726      C2727   1.411       .  A
C2726      H2735   1.084       .  S
C2727      C2728   1.410       .  A
C2728      H2736   1.084       .  S
C2737      C2738   1.403       .  A
C2737      C2742   1.404       .  A
C2737      H2753   1.083       .  S
C2738      C2739   1.406       .  A
C2738      H2754   1.083       .  S
C2739      C2749   1.406       .  A
C2739      C2740   1.408       .  A
C2740      C2746   1.415       .  A
C2740      C2741   1.417       .  A
C2741      C2743   1.406       .  A
C2741      C2742   1.415       .  A
C2742      C2750   1.415       .  A
C2743      C2752   1.400       .  A
C2743      C2744   1.405       .  A
C2744      C2745   1.399       .  A
C2744      H2755   1.084       .  S
C2745      C2746   1.402       .  A
C2745      H2756   1.084       .  S
C2746      C2747   1.409       .  A
C2747      C2748   1.406       .  A
C2747      H2757   1.084   1_655  S
C2748      C2749   1.414       .  A
C2749      H2758   1.084       .  S
C2750      C2751   1.409       .  A
C2750      H2759   1.084       .  S
C2751      C2752   1.415       .  A
C2752      H2760   1.084       .  S
C2761      C2762   1.402       .  A
C2761      C2766   1.406       .  A
C2761      H2777   1.083       .  S
C2762      C2763   1.404       .  A
C2762      H2778   1.083       .  S
C2763      C2773   1.413       .  A
C2763      C2764   1.415       .  A
C2764      C2770   1.408       .  A
C2764      C2765   1.419       .  A
C2765      C2767   1.415       .  A
C2765      C2766   1.408       .  A
C2766      C2774   1.407       .  A
C2767      C2776   1.413       .  A
C2767      C2768   1.404       .  A
C2768      C2769   1.402       .  A
C2768      H2779   1.083       .  S
C2769      C2770   1.406       .  A
C2769      H2780   1.084       .  S
C2770      C2771   1.406       .  A
C2771      C2772   1.413       .  A
C2771      H2781   1.084       .  S
C2772      C2773   1.408       .  A
C2773      H2782   1.084       .  S
C2774      C2775   1.415       .  A
C2774      H2783   1.084       .  S
C2775      C2776   1.409       .  A
C2776      H2784   1.084   1_556  S
C2785      C2786   1.401       .  A
C2785      C2790   1.405       .  A
C2785      H2801   1.083       .  S
C2786      C2787   1.404       .  A
C2786      H2802   1.083       .  S
C2787      C2797   1.410       .  A
C2787      C2788   1.413       .  A
C2788      C2794   1.410       .  A
C2788      C2789   1.418       .  A
C2789      C2791   1.413       .  A
C2789      C2790   1.410       .  A
C2790      C2798   1.407       .  A
C2791      C2800   1.410       .  A
C2791      C2792   1.405       .  A
C2792      C2793   1.402       .  A
C2792      H2803   1.084       .  S
C2793      C2794   1.405       .  A
C2793      H2804   1.084       .  S
C2794      C2795   1.406       .  A
C2795      C2796   1.412       .  A
C2795      H2805   1.084       .  S
C2796      C2797   1.408       .  A
C2797      H2806   1.084       .  S
C2798      C2799   1.411       .  A
C2798      H2807   1.084       .  S
C2799      C2800   1.410       .  A
C2800      H2808   1.084       .  S
C2809      C2810   1.399   1_455  A
C2809      C2814   1.402       .  A
C2809      H2825   1.084       .  S
C2810      C2811   1.405       .  A
C2810      H2826   1.084       .  S
C2811      C2821   1.401       .  A
C2811      C2812   1.407       .  A
C2812      C2818   1.415       .  A
C2812      C2813   1.415   1_655  A
C2813      C2815   1.407       .  A
C2813      C2814   1.415       .  A
C2814      C2822   1.409       .  A
C2815      C2824   1.403       .  A
C2815      C2816   1.406   1_455  A
C2816      C2817   1.401       .  A
C2816      H2827   1.084   1_655  S
C2817      C2818   1.403       .  A
C2817      H2828   1.084       .  S
C2818      C2819   1.411       .  A
C2819      C2820   1.408       .  A
C2819      H2829   1.084       .  S
C2820      C2821   1.413       .  A
C2821      H2830   1.084       .  S
C2822      C2823   1.406       .  A
C2822      H2831   1.084       .  S
C2823      C2824   1.415       .  A
C2824      H2832   1.084       .  S
C2833      C2834   1.397       .  A
C2833      C2838   1.402       .  A
C2833      H2849   1.084       .  S
C2834      C2835   1.402       .  A
C2834      H2850   1.084       .  S
C2835      C2845   1.400       .  A
C2835      C2836   1.413       .  A
C2836      C2842   1.412       .  A
C2836      C2837   1.408       .  A
C2837      C2839   1.413       .  A
C2837      C2838   1.412       .  A
C2838      C2846   1.398       .  A
C2839      C2848   1.400       .  A
C2839      C2840   1.403       .  A
C2840      C2841   1.398       .  A
C2840      H2851   1.084       .  S
C2841      C2842   1.403       .  A
C2841      H2852   1.084       .  S
C2842      C2843   1.399       .  A
C2843      C2844   1.403       .  A
C2843      H2853   1.085       .  S
C2844      C2845   1.401       .  A
C2845      H2854   1.085       .  S
C2846      C2847   1.402       .  A
C2846      H2855   1.085       .  S
C2847      C2848   1.404       .  A
C2848      H2856   1.085       .  S
C2857      C2858   1.398       .  A
C2857      C2862   1.403       .  A
C2857      H2873   1.084       .  S
C2858      C2859   1.403       .  A
C2858      H2874   1.084       .  S
C2859      C2869   1.400       .  A
C2859      C2860   1.410       .  A
C2860      C2866   1.413       .  A
C2860      C2861   1.412       .  A
C2861      C2863   1.410       .  A
C2861      C2862   1.412       .  A
C2862      C2870   1.403       .  A
C2863      C2872   1.403       .  A
C2863      C2864   1.405       .  A
C2864      C2865   1.400       .  A
C2864      H2875   1.084       .  S
C2865      C2866   1.404       .  A
C2865      H2876   1.084       .  S
C2866      C2867   1.406       .  A
C2867      C2868   1.408       .  A
C2867      H2877   1.084       .  S
C2868      C2869   1.408       .  A
C2869      H2878   1.084       .  S
C2870      C2871   1.406       .  A
C2870      H2879   1.084       .  S
C2871      C2872   1.410       .  A
C2872      H2880   1.084       .  S
C2881      C2882   1.402       .  A
C2881      C2886   1.405       .  A
C2881      H2897   1.083       .  S
C2882      C2883   1.405       .  A
C2882      H2898   1.083       .  S
C2883      C2893   1.411       .  A
C2883      C2884   1.414       .  A
C2884      C2890   1.409       .  A
C2884      C2885   1.414       .  A
C2885      C2887   1.413       .  A
C2885      C2886   1.410       .  A
C2886      C2894   1.406       .  A
C2887      C2896   1.402       .  A
C2887      C2888   1.402       .  A
C2888      C2889   1.397       .  A
C2888      H2899   1.084       .  S
C2889      C2890   1.403       .  A
C2889      H2900   1.084       .  S
C2890      C2891   1.399       .  A
C2891      C2892   1.409       .  A
C2891      H2901   1.085       .  S
C2892      C2893   1.408       .  A
C2893      H2902   1.084       .  S
C2894      C2895   1.411       .  A
C2894      H2903   1.084       .  S
C2895      C2896   1.405       .  A
C2896      H2904   1.084       .  S
C2905      C2906   1.402       .  A
C2905      C2910   1.404       .  A
C2905      H2921   1.083       .  S
C2906      C2907   1.405       .  A
C2906      H2922   1.083       .  S
C2907      C2917   1.407       .  A
C2907      C2908   1.409       .  A
C2908      C2914   1.413       .  A
C2908      C2909   1.419       .  A
C2909      C2911   1.410       .  A
C2909      C2910   1.414       .  A
C2910      C2918   1.411       .  A
C2911      C2920   1.407       .  A
C2911      C2912   1.405       .  A
C2912      C2913   1.402       .  A
C2912      H2923   1.084       .  S
C2913      C2914   1.405       .  A
C2913      H2924   1.083       .  S
C2914      C2915   1.412       .  A
C2915      C2916   1.410       .  A
C2915      H2925   1.084       .  S
C2916      C2917   1.413       .  A
C2917      H2926   1.084       .  S
C2918      C2919   1.408       .  A
C2918      H2927   1.084       .  S
C2919      C2920   1.412       .  A
C2920      H2928   1.084       .  S
C2929      C2930   1.399       .  A
C2929      C2934   1.403       .  A
C2929      H2945   1.084       .  S
C2930      C2931   1.404       .  A
C2930      H2946   1.084       .  S
C2931      C2941   1.403       .  A
C2931      C2932   1.408       .  A
C2932      C2938   1.414       .  A
C2932      C2933   1.417       .  A
C2933      C2935   1.408       .  A
C2933      C2934   1.414       .  A
C2934      C2942   1.408       .  A
C2935      C2944   1.407       .  A
C2935      C2936   1.406       .  A
C2936      C2937   1.403       .  A
C2936      H2947   1.084       .  S
C2937      C2938   1.405       .  A
C2937      H2948   1.083       .  S
C2938      C2939   1.414       .  A
C2939      C2940   1.412       .  A
C2939      H2949   1.084       .  S
C2940      C2941   1.412       .  A
C2941      H2950   1.084       .  S
C2942      C2943   1.407       .  A
C2942      H2951   1.084       .  S
C2943      C2944   1.415       .  A
C2944      H2952   1.084       .  S
C2953      C2954   1.402       .  A
C2953      C2958   1.405       .  A
C2953      H2969   1.083       .  S
C2954      C2955   1.405       .  A
C2954      H2970   1.083       .  S
C2955      C2965   1.408       .  A
C2955      C2956   1.411       .  A
C2956      C2962   1.412   1_556  A
C2956      C2957   1.416       .  A
C2957      C2959   1.410   1_556  A
C2957      C2958   1.413       .  A
C2958      C2966   1.411       .  A
C2959      C2968   1.403   1_554  A
C2959      C2960   1.404       .  A
C2960      C2961   1.399       .  A
C2960      H2971   1.084       .  S
C2961      C2962   1.403       .  A
C2961      H2972   1.084       .  S
C2962      C2963   1.405       .  A
C2963      C2964   1.407       .  A
C2963      H2973   1.084       .  S
C2964      C2965   1.411   1_554  A
C2965      H2974   1.084       .  S
C2966      C2967   1.409       .  A
C2966      H2975   1.084       .  S
C2967      C2968   1.410       .  A
C2968      H2976   1.084   1_556  S
C2977      C2978   1.403       .  A
C2977      C2982   1.405       .  A
C2977      H2993   1.083       .  S
C2978      C2979   1.405       .  A
C2978      H2994   1.083       .  S
C2979      C2989   1.408       .  A
C2979      C2980   1.411       .  A
C2980      C2986   1.412   1_554  A
C2980      C2981   1.416       .  A
C2981      C2983   1.410       .  A
C2981      C2982   1.413       .  A
C2982      C2990   1.410       .  A
C2983      C2992   1.402       .  A
C2983      C2984   1.403   1_554  A
C2984      C2985   1.398       .  A
C2984      H2995   1.084       .  S
C2985      C2986   1.403       .  A
C2985      H2996   1.084       .  S
C2986      C2987   1.405       .  A
C2987      C2988   1.407       .  A
C2987      H2997   1.084       .  S
C2988      C2989   1.411   1_556  A
C2989      H2998   1.084   1_655  S
C2990      C2991   1.409       .  A
C2990      H2999   1.084       .  S
C2991      C2992   1.408       .  A
C2992      H3000   1.084       .  S
C3001      C3002   1.399       .  A
C3001      C3006   1.403       .  A
C3001      H3017   1.084       .  S
C3002      C3003   1.403       .  A
C3002      H3018   1.084       .  S
C3003      C3013   1.401       .  A
C3003      C3004   1.412       .  A
C3004      C3010   1.413       .  A
C3004      C3005   1.410       .  A
C3005      C3007   1.412       .  A
C3005      C3006   1.413       .  A
C3006      C3014   1.403       .  A
C3007      C3016   1.400       .  A
C3007      C3008   1.403       .  A
C3008      C3009   1.398       .  A
C3008      H3019   1.084       .  S
C3009      C3010   1.403       .  A
C3009      H3020   1.084       .  S
C3010      C3011   1.402       .  A
C3011      C3012   1.403       .  A
C3011      H3021   1.084       .  S
C3012      C3013   1.404       .  A
C3013      H3022   1.085   1_554  S
C3014      C3015   1.404       .  A
C3014      H3023   1.084       .  S
C3015      C3016   1.403       .  A
C3016      H3024   1.085       .  S
C3025      C3026   1.401       .  A
C3025      C3030   1.404       .  A
C3025      H3041   1.084       .  S
C3026      C3027   1.405       .  A
C3026      H3042   1.083       .  S
C3027      C3037   1.405       .  A
C3027      C3028   1.409       .  A
C3028      C3034   1.413       .  A
C3028      C3029   1.415       .  A
C3029      C3031   1.409       .  A
C3029      C3030   1.413       .  A
C3030      C3038   1.408       .  A
C3031      C3040   1.403       .  A
C3031      C3032   1.404       .  A
C3032      C3033   1.400       .  A
C3032      H3043   1.084       .  S
C3033      C3034   1.404       .  A
C3033      H3044   1.084       .  S
C3034      C3035   1.407       .  A
C3035      C3036   1.409       .  A
C3035      H3045   1.084       .  S
C3036      C3037   1.413       .  A
C3037      H3046   1.084       .  S
C3038      C3039   1.409       .  A
C3038      H3047   1.084       .  S
C3039      C3040   1.411       .  A
C3040      H3048   1.084       .  S
C3049      C3050   1.400       .  A
C3049      C3054   1.405       .  A
C3049      H3065   1.084       .  S
C3050      C3051   1.403       .  A
C3050      H3066   1.083       .  S
C3051      C3061   1.409       .  A
C3051      C3052   1.414       .  A
C3052      C3058   1.410       .  A
C3052      C3053   1.417       .  A
C3053      C3055   1.414       .  A
C3053      C3054   1.409       .  A
C3054      C3062   1.404       .  A
C3055      C3064   1.411       .  A
C3055      C3056   1.404       .  A
C3056      C3057   1.402       .  A
C3056      H3067   1.083       .  S
C3057      C3058   1.406       .  A
C3057      H3068   1.083       .  S
C3058      C3059   1.407       .  A
C3059      C3060   1.412       .  A
C3059      H3069   1.084       .  S
C3060      C3061   1.407       .  A
C3061      H3070   1.084       .  S
C3062      C3063   1.412       .  A
C3062      H3071   1.084       .  S
C3063      C3064   1.409       .  A
C3064      H3072   1.084       .  S
C3073      C3074   1.398       .  A
C3073      C3078   1.403       .  A
C3073      H3089   1.084       .  S
C3074      C3075   1.403       .  A
C3074      H3090   1.084       .  S
C3075      C3085   1.401       .  A
C3075      C3076   1.410       .  A
C3076      C3082   1.414       .  A
C3076      C3077   1.413       .  A
C3077      C3079   1.410       .  A
C3077      C3078   1.412       .  A
C3078      C3086   1.403       .  A
C3079      C3088   1.405       .  A
C3079      C3080   1.405       .  A
C3080      C3081   1.401       .  A
C3080      H3091   1.084       .  S
C3081      C3082   1.404       .  A
C3081      H3092   1.083       .  S
C3082      C3083   1.408       .  A
C3083      C3084   1.406       .  A
C3083      H3093   1.084       .  S
C3084      C3085   1.408       .  A
C3085      H3094   1.085       .  S
C3086      C3087   1.407       .  A
C3086      H3095   1.084       .  S
C3087      C3088   1.411       .  A
C3088      H3096   1.084       .  S
C3097      C3098   1.400       .  A
C3097      C3102   1.404       .  A
C3097      H3113   1.084       .  S
C3098      C3099   1.404       .  A
C3098      H3114   1.084       .  S
C3099      C3109   1.403       .  A
C3099      C3100   1.409       .  A
C3100      C3106   1.414       .  A
C3100      C3101   1.415       .  A
C3101      C3103   1.410       .  A
C3101      C3102   1.413       .  A
C3102      C3110   1.407       .  A
C3103      C3112   1.404       .  A
C3103      C3104   1.404       .  A
C3104      C3105   1.400       .  A
C3104      H3115   1.084       .  S
C3105      C3106   1.404       .  A
C3105      H3116   1.083       .  S
C3106      C3107   1.409       .  A
C3107      C3108   1.407       .  A
C3107      H3117   1.084       .  S
C3108      C3109   1.410       .  A
C3109      H3118   1.084       .  S
C3110      C3111   1.408       .  A
C3110      H3119   1.084       .  S
C3111      C3112   1.410       .  A
C3112      H3120   1.084       .  S
C3121      C3122   1.398       .  A
C3121      C3126   1.404       .  A
C3121      H3137   1.084       .  S
C3122      C3123   1.403   1_655  A
C3122      H3138   1.084       .  S
C3123      C3133   1.404       .  A
C3123      C3124   1.413       .  A
C3124      C3130   1.409       .  A
C3124      C3125   1.412   1_455  A
C3125      C3127   1.413       .  A
C3125      C3126   1.409       .  A
C3126      C3134   1.401       .  A
C3127      C3136   1.405       .  A
C3127      C3128   1.404   1_655  A
C3128      C3129   1.399       .  A
C3128      H3139   1.084       .  S
C3129      C3130   1.404       .  A
C3129      H3140   1.084       .  S
C3130      C3131   1.401       .  A
C3131      C3132   1.410       .  A
C3131      H3141   1.084       .  S
C3132      C3133   1.406       .  A
C3133      H3142   1.084       .  S
C3134      C3135   1.410       .  A
C3134      H3143   1.084       .  S
C3135      C3136   1.408       .  A
C3136      H3144   1.084       .  S
C3145      C3146   1.401       .  A
C3145      C3150   1.404       .  A
C3145      H3161   1.083       .  S
C3146      C3147   1.405       .  A
C3146      H3162   1.084       .  S
C3147      C3157   1.406       .  A
C3147      C3148   1.411       .  A
C3148      C3154   1.413       .  A
C3148      C3149   1.417       .  A
C3149      C3151   1.410       .  A
C3149      C3150   1.413       .  A
C3150      C3158   1.410       .  A
C3151      C3160   1.405       .  A
C3151      C3152   1.405       .  A
C3152      C3153   1.401       .  A
C3152      H3163   1.084       .  S
C3153      C3154   1.404       .  A
C3153      H3164   1.084       .  S
C3154      C3155   1.408       .  A
C3155      C3156   1.407       .  A
C3155      H3165   1.084       .  S
C3156      C3157   1.409       .  A
C3157      H3166   1.084       .  S
C3158      C3159   1.410       .  A
C3158      H3167   1.084       .  S
C3159      C3160   1.412       .  A
C3160      H3168   1.084       .  S
C3169      C3170   1.397       .  A
C3169      C3174   1.403       .  A
C3169      H3185   1.084       .  S
C3170      C3171   1.403       .  A
C3170      H3186   1.084       .  S
C3171      C3181   1.398       .  A
C3171      C3172   1.409       .  A
C3172      C3178   1.414       .  A
C3172      C3173   1.412       .  A
C3173      C3175   1.410       .  A
C3173      C3174   1.413       .  A
C3174      C3182   1.403       .  A
C3175      C3184   1.404       .  A
C3175      C3176   1.405       .  A
C3176      C3177   1.401       .  A
C3176      H3187   1.083       .  S
C3177      C3178   1.404       .  A
C3177      H3188   1.083       .  S
C3178      C3179   1.408       .  A
C3179      C3180   1.407       .  A
C3179      H3189   1.084       .  S
C3180      C3181   1.407       .  A
C3181      H3190   1.085       .  S
C3182      C3183   1.406       .  A
C3182      H3191   1.084       .  S
C3183      C3184   1.410       .  A
C3184      H3192   1.084       .  S
C3193      C3194   1.401       .  A
C3193      C3198   1.403       .  A
C3193      H3209   1.083       .  S
C3194      C3195   1.405       .  A
C3194      H3210   1.083       .  S
C3195      C3205   1.404       .  A
C3195      C3196   1.408       .  A
C3196      C3202   1.414       .  A
C3196      C3197   1.416       .  A
C3197      C3199   1.407       .  A
C3197      C3198   1.415       .  A
C3198      C3206   1.411       .  A
C3199      C3208   1.402       .  A
C3199      C3200   1.405       .  A
C3200      C3201   1.400       .  A
C3200      H3211   1.084       .  S
C3201      C3202   1.403       .  A
C3201      H3212   1.084       .  S
C3202      C3203   1.409       .  A
C3203      C3204   1.407       .  A
C3203      H3213   1.084       .  S
C3204      C3205   1.413       .  A
C3205      H3214   1.084       .  S
C3206      C3207   1.408       .  A
C3206      H3215   1.084       .  S
C3207      C3208   1.415       .  A
C3208      H3216   1.084       .  S
C3217      C3218   1.399       .  A
C3217      C3222   1.403       .  A
C3217      H3233   1.084       .  S
C3218      C3219   1.403       .  A
C3218      H3234   1.084       .  S
C3219      C3229   1.403       .  A
C3219      C3220   1.412       .  A
C3220      C3226   1.412       .  A
C3220      C3221   1.413   1_655  A
C3221      C3223   1.413       .  A
C3221      C3222   1.412   1_455  A
C3222      C3230   1.403   1_655  A
C3223      C3232   1.406       .  A
C3223      C3224   1.404       .  A
C3224      C3225   1.401       .  A
C3224      H3235   1.083       .  S
C3225      C3226   1.404   1_455  A
C3225      H3236   1.084       .  S
C3226      C3227   1.405       .  A
C3227      C3228   1.406       .  A
C3227      H3237   1.085       .  S
C3228      C3229   1.405       .  A
C3229      H3238   1.084       .  S
C3230      C3231   1.404       .  A
C3230      H3239   1.085       .  S
C3231      C3232   1.405       .  A
C3232      H3240   1.084       .  S
C3241      C3242   1.400       .  A
C3241      C3246   1.405       .  A
C3241      H3257   1.084       .  S
C3242      C3243   1.403   1_455  A
C3242      H3258   1.084       .  S
C3243      C3253   1.407       .  A
C3243      C3244   1.414       .  A
C3244      C3250   1.408       .  A
C3244      C3245   1.411   1_656  A
C3245      C3247   1.413   1_455  A
C3245      C3246   1.409   1_554  A
C3246      C3254   1.402   1_556  A
C3247      C3256   1.403   1_655  A
C3247      C3248   1.402       .  A
C3248      C3249   1.397       .  A
C3248      H3259   1.084       .  S
C3249      C3250   1.404   1_554  A
C3249      H3260   1.084       .  S
C3250      C3251   1.398       .  A
C3251      C3252   1.410       .  A
C3251      H3261   1.084       .  S
C3252      C3253   1.407       .  A
C3253      H3262   1.084       .  S
C3254      C3255   1.411       .  A
C3254      H3263   1.084   1_554  S
C3255      C3256   1.406       .  A
C3256      H3264   1.084       .  S
C3265      C3266   1.399       .  A
C3265      C3270   1.403       .  A
C3265      H3281   1.084       .  S
C3266      C3267   1.405       .  A
C3266      H3282   1.084       .  S
C3267      C3277   1.401       .  A
C3267      C3268   1.407       .  A
C3268      C3274   1.415   1_655  A
C3268      C3269   1.415       .  A
C3269      C3271   1.408   1_655  A
C3269      C3270   1.415       .  A
C3270      C3278   1.408       .  A
C3271      C3280   1.403       .  A
C3271      C3272   1.405       .  A
C3272      C3273   1.401       .  A
C3272      H3283   1.084       .  S
C3273      C3274   1.404       .  A
C3273      H3284   1.083       .  S
C3274      C3275   1.412   1_455  A
C3275      C3276   1.408       .  A
C3275      H3285   1.084   1_655  S
C3276      C3277   1.413       .  A
C3277      H3286   1.084       .  S
C3278      C3279   1.405   1_655  A
C3278      H3287   1.084       .  S
C3279      C3280   1.410       .  A
C3280      H3288   1.084       .  S
C3289      C3290   1.398       .  A
C3289      C3294   1.403       .  A
C3289      H3305   1.084       .  S
C3290      C3291   1.403       .  A
C3290      H3306   1.084       .  S
C3291      C3301   1.405       .  A
C3291      C3292   1.413       .  A
C3292      C3298   1.409       .  A
C3292      C3293   1.412       .  A
C3293      C3295   1.414       .  A
C3293      C3294   1.410       .  A
C3294      C3302   1.400       .  A
C3295      C3304   1.406       .  A
C3295      C3296   1.403       .  A
C3296      C3297   1.399       .  A
C3296      H3307   1.084       .  S
C3297      C3298   1.405       .  A
C3297      H3308   1.084       .  S
C3298      C3299   1.402       .  A
C3299      C3300   1.410       .  A
C3299      H3309   1.084   1_545  S
C3300      C3301   1.407       .  A
C3301      H3310   1.084       .  S
C3302      C3303   1.406       .  A
C3302      H3311   1.085       .  S
C3303      C3304   1.405       .  A
C3304      H3312   1.084       .  S
C3313      C3314   1.403       .  A
C3313      C3318   1.405       .  A
C3313      H3329   1.083       .  S
C3314      C3315   1.405       .  A
C3314      H3330   1.083       .  S
C3315      C3325   1.408       .  A
C3315      C3316   1.411       .  A
C3316      C3322   1.412       .  A
C3316      C3317   1.416       .  A
C3317      C3319   1.410       .  A
C3317      C3318   1.413       .  A
C3318      C3326   1.411       .  A
C3319      C3328   1.402       .  A
C3319      C3320   1.404       .  A
C3320      C3321   1.399       .  A
C3320      H3331   1.084       .  S
C3321      C3322   1.403       .  A
C3321      H3332   1.084       .  S
C3322      C3323   1.405       .  A
C3323      C3324   1.407       .  A
C3323      H3333   1.084       .  S
C3324      C3325   1.410       .  A
C3325      H3334   1.084   1_455  S
C3326      C3327   1.410       .  A
C3326      H3335   1.084       .  S
C3327      C3328   1.410       .  A
C3328      H3336   1.084       .  S
C3337      C3338   1.399       .  A
C3337      C3342   1.403       .  A
C3337      H3353   1.084       .  S
C3338      C3339   1.404       .  A
C3338      H3354   1.084       .  S
C3339      C3349   1.401       .  A
C3339      C3340   1.409       .  A
C3340      C3346   1.413       .  A
C3340      C3341   1.414       .  A
C3341      C3343   1.409       .  A
C3341      C3342   1.413       .  A
C3342      C3350   1.406       .  A
C3343      C3352   1.405       .  A
C3343      C3344   1.405       .  A
C3344      C3345   1.401       .  A
C3344      H3355   1.083       .  S
C3345      C3346   1.404       .  A
C3345      H3356   1.084       .  S
C3346      C3347   1.408       .  A
C3347      C3348   1.408       .  A
C3347      H3357   1.084       .  S
C3348      C3349   1.410       .  A
C3349      H3358   1.084       .  S
C3350      C3351   1.407       .  A
C3350      H3359   1.084       .  S
C3351      C3352   1.412       .  A
C3352      H3360   1.084       .  S
C3361      C3362   1.400       .  A
C3361      C3366   1.403       .  A
C3361      H3377   1.083       .  S
C3362      C3363   1.405       .  A
C3362      H3378   1.084       .  S
C3363      C3373   1.402       .  A
C3363      C3364   1.409       .  A
C3364      C3370   1.414       .  A
C3364      C3365   1.411       .  A
C3365      C3367   1.407       .  A
C3365      C3366   1.415       .  A
C3366      C3374   1.408       .  A
C3367      C3376   1.395       .  A
C3367      C3368   1.404       .  A
C3368      C3369   1.396       .  A
C3368      H3379   1.084       .  S
C3369      C3370   1.402       .  A
C3369      H3380   1.084   1_455  S
C3370      C3371   1.402   1_455  A
C3371      C3372   1.404       .  A
C3371      H3381   1.084       .  S
C3372      C3373   1.410   1_655  A
C3373      H3382   1.084       .  S
C3374      C3375   1.406       .  A
C3374      H3383   1.084       .  S
C3375      C3376   1.411       .  A
C3376      H3384   1.084       .  S
C3385      C3386   1.399       .  A
C3385      C3390   1.405       .  A
C3385      H3401   1.084       .  S
C3386      C3387   1.403       .  A
C3386      H3402   1.083       .  S
C3387      C3397   1.409       .  A
C3387      C3388   1.415       .  A
C3388      C3394   1.409       .  A
C3388      C3389   1.418       .  A
C3389      C3391   1.415       .  A
C3389      C3390   1.407       .  A
C3390      C3398   1.402       .  A
C3391      C3400   1.416       .  A
C3391      C3392   1.405       .  A
C3392      C3393   1.404       .  A
C3392      H3403   1.083       .  S
C3393      C3394   1.407       .  A
C3393      H3404   1.083       .  S
C3394      C3395   1.409       .  A
C3395      C3396   1.413       .  A
C3395      H3405   1.084       .  S
C3396      C3397   1.406       .  A
C3397      H3406   1.084   1_554  S
C3398      C3399   1.413       .  A
C3398      H3407   1.084       .  S
C3399      C3400   1.411       .  A
C3400      H3408   1.084       .  S
C3409      C3410   1.399       .  A
C3409      C3414   1.403       .  A
C3409      H3425   1.084       .  S
C3410      C3411   1.404       .  A
C3410      H3426   1.083       .  S
C3411      C3421   1.404       .  A
C3411      C3412   1.410       .  A
C3412      C3418   1.412       .  A
C3412      C3413   1.414       .  A
C3413      C3415   1.411       .  A
C3413      C3414   1.413       .  A
C3414      C3422   1.405       .  A
C3415      C3424   1.404       .  A
C3415      C3416   1.404       .  A
C3416      C3417   1.400       .  A
C3416      H3427   1.084       .  S
C3417      C3418   1.404       .  A
C3417      H3428   1.084       .  S
C3418      C3419   1.406       .  A
C3419      C3420   1.409       .  A
C3419      H3429   1.084       .  S
C3420      C3421   1.410       .  A
C3421      H3430   1.084       .  S
C3422      C3423   1.405       .  A
C3422      H3431   1.084       .  S
C3423      C3424   1.408       .  A
C3424      H3432   1.085       .  S
C3433      C3434   1.398       .  A
C3433      C3438   1.403       .  A
C3433      H3449   1.084       .  S
C3434      C3435   1.404       .  A
C3434      H3450   1.084       .  S
C3435      C3445   1.401       .  A
C3435      C3436   1.410       .  A
C3436      C3442   1.413       .  A
C3436      C3437   1.414       .  A
C3437      C3439   1.410       .  A
C3437      C3438   1.412       .  A
C3438      C3446   1.403       .  A
C3439      C3448   1.406       .  A
C3439      C3440   1.405       .  A
C3440      C3441   1.402       .  A
C3440      H3451   1.083       .  S
C3441      C3442   1.404       .  A
C3441      H3452   1.083       .  S
C3442      C3443   1.410       .  A
C3443      C3444   1.408       .  A
C3443      H3453   1.084       .  S
C3444      C3445   1.409       .  A
C3445      H3454   1.085       .  S
C3446      C3447   1.407       .  A
C3446      H3455   1.084       .  S
C3447      C3448   1.410       .  A
C3448      H3456   1.084       .  S
C3457      C3458   1.398       .  A
C3457      C3462   1.403       .  A
C3457      H3473   1.084       .  S
C3458      C3459   1.403       .  A
C3458      H3474   1.084       .  S
C3459      C3469   1.401       .  A
C3459      C3460   1.412       .  A
C3460      C3466   1.413       .  A
C3460      C3461   1.412       .  A
C3461      C3463   1.412       .  A
C3461      C3462   1.412       .  A
C3462      C3470   1.402       .  A
C3463      C3472   1.406       .  A
C3463      C3464   1.405       .  A
C3464      C3465   1.401       .  A
C3464      H3475   1.084       .  S
C3465      C3466   1.404       .  A
C3465      H3476   1.083       .  S
C3466      C3467   1.407       .  A
C3467      C3468   1.405       .  A
C3467      H3477   1.084       .  S
C3468      C3469   1.403       .  A
C3469      H3478   1.085       .  S
C3470      C3471   1.404       .  A
C3470      H3479   1.085       .  S
C3471      C3472   1.406       .  A
C3472      H3480   1.085       .  S
C3481      C3482   1.400   1_455  A
C3481      C3486   1.403       .  A
C3481      H3497   1.084       .  S
C3482      C3483   1.405       .  A
C3482      H3498   1.084       .  S
C3483      C3493   1.401       .  A
C3483      C3484   1.407       .  A
C3484      C3490   1.415       .  A
C3484      C3485   1.413   1_655  A
C3485      C3487   1.407       .  A
C3485      C3486   1.415       .  A
C3486      C3494   1.409       .  A
C3487      C3496   1.399       .  A
C3487      C3488   1.404       .  A
C3488      C3489   1.398   1_455  A
C3488      H3499   1.084       .  S
C3489      C3490   1.402       .  A
C3489      H3500   1.084       .  S
C3490      C3491   1.407       .  A
C3491      C3492   1.406       .  A
C3491      H3501   1.084       .  S
C3492      C3493   1.414       .  A
C3493      H3502   1.084       .  S
C3494      C3495   1.407       .  A
C3494      H3503   1.084       .  S
C3495      C3496   1.412       .  A
C3496      H3504   1.084       .  S
C3505      C3506   1.401       .  A
C3505      C3510   1.405       .  A
C3505      H3521   1.084       .  S
C3506      C3507   1.404       .  A
C3506      H3522   1.084       .  S
C3507      C3517   1.408       .  A
C3507      C3508   1.413       .  A
C3508      C3514   1.409       .  A
C3508      C3509   1.414       .  A
C3509      C3511   1.413       .  A
C3509      C3510   1.410       .  A
C3510      C3518   1.404       .  A
C3511      C3520   1.405       .  A
C3511      C3512   1.403       .  A
C3512      C3513   1.399       .  A
C3512      H3523   1.084       .  S
C3513      C3514   1.404       .  A
C3513      H3524   1.084       .  S
C3514      C3515   1.402       .  A
C3515      C3516   1.411       .  A
C3515      H3525   1.084       .  S
C3516      C3517   1.407       .  A
C3517      H3526   1.084       .  S
C3518      C3519   1.411       .  A
C3518      H3527   1.084       .  S
C3519      C3520   1.407       .  A
C3520      H3528   1.084       .  S
