geometry optimzed in LAMMPS
_audit_creation_date              2020-12-01 
_audit_creation_method            'lammps2cif' 
_symmetry_space_group_name_H-M    'P1' 
_symmetry_Int_Tables_number       1 
_symmetry_cell_setting            triclinic 
loop_ 
_symmetry_equiv_pos_as_xyz 
  x,y,z 
_cell_length_a                    48.49256117 
_cell_length_b                    48.821019738670955 
_cell_length_c                    29.995983839463047 
_cell_angle_alpha                 90.21107142895694 
_cell_angle_beta                  90.01553521402849 
_cell_angle_gamma                 90.05413144163148 
loop_ 
_atom_site_label 
_atom_site_type_symbol 
_atom_site_fract_x 
_atom_site_fract_y 
_atom_site_fract_z 
_atom_site_charge 
O1          O  0.69955624  0.49392168  0.80055449    -0.85700
O2          O  0.73324368  0.45825373  0.75628852    -0.82700
C3          C  0.73903399  0.43589078  0.73727274     0.97800
O4          O  0.72276738  0.42585278  0.70848703    -0.82800
O5          O  0.67569831  0.40608922  0.74859563    -0.85400
C6          C  0.65270925  0.40582870  0.76808260     1.02300
O7          O  0.63792117  0.42702587  0.76851715    -0.78200
O8          O  0.66910558  0.46277783  0.81932153    -0.78300
C9          C  0.68862365  0.47867231  0.82999583     1.02300
O10         O  0.68117441  0.51579374  0.71411472    -0.85700
O11         O  0.71864489  0.48158089  0.67186714    -0.82700
C12         C  0.70775304  0.47001075  0.63839225     0.97800
O13         O  0.68876196  0.45277900  0.64367344    -0.82800
O14         O  0.64267128  0.43114604  0.67964424    -0.85400
C15         C  0.62515612  0.45040364  0.67901926     1.02300
O16         O  0.62611733  0.46966469  0.70732679    -0.78200
O17         O  0.65085319  0.50692462  0.76536103    -0.78300
C18         C  0.66031333  0.52300608  0.73642221     1.02200
Cr19       Cr  0.70597182  0.48562373  0.73530690     1.93700
Cr20       Cr  0.68231671  0.43133988  0.69799370     1.93200
Cr21       Cr  0.64841820  0.46625902  0.76276072     1.39100
O22         O  0.67911027  0.46098723  0.73181290    -1.23400
O23         O  0.74675015  0.45519915  0.26261102    -0.85700
O24         O  0.77939457  0.49406950  0.30061419    -0.82700
C25         C  0.78982762  0.47894902  0.33053757     0.97800
O26         O  0.80946320  0.46310706  0.32075540    -0.82800
O27         O  0.84089774  0.42699500  0.27170073    -0.85400
C28         C  0.82646619  0.40542870  0.27084589     1.02300
O29         O  0.80339949  0.40531715  0.25163282    -0.78200
O30         O  0.75602904  0.42407795  0.21194474    -0.78300
C31         C  0.74106010  0.43287951  0.24348339     1.02300
O32         O  0.75715884  0.47656196  0.17457287    -0.85700
O33         O  0.79476121  0.51269480  0.21174331    -0.82700
C34         C  0.81583923  0.52118509  0.23214619     0.97800
O35         O  0.82607174  0.50706431  0.26325082    -0.82800
O36         O  0.85181881  0.46931696  0.20837939    -0.85400
C37         C  0.85352794  0.44933498  0.18169538     1.02300
O38         O  0.83623925  0.42986662  0.18277289    -0.78200
O39         O  0.78979800  0.45116031  0.14639472    -0.78300
C40         C  0.76915648  0.46626677  0.14088223     1.02200
Cr41       Cr  0.77153762  0.48310360  0.23702679     1.93700
Cr42       Cr  0.82984413  0.46623628  0.26402878     1.93200
Cr43       Cr  0.79647133  0.42985299  0.20071353     1.39100
O44         O  0.79922048  0.45962292  0.23378025    -1.23400
O45         O  0.97112856  0.21151038  0.32110327    -0.85700
O46         O  0.94722579  0.23741286  0.39045104    -0.82700
C47         C  0.92171714  0.23540796  0.38077597     0.97800
O48         O  0.90935117  0.21289558  0.38564587    -0.82800
O49         O  0.90040723  0.15715279  0.39197296    -0.85400
C50         C  0.90077886  0.14970917  0.35161037     1.02300
O51         O  0.92283085  0.15168084  0.32978756    -0.78200
O52         O  0.97463904  0.16792314  0.30445326    -0.78300
C53         C  0.97333384  0.19285266  0.29237665     1.02300
O54         O  0.01163918  0.18561813  0.37689004    -0.85700
O55         O  0.98473645  0.20876708  0.45072409    -0.82700
C56         C  0.96578131  0.21543810  0.47746121     0.97800
O57         O  0.94094081  0.21188010  0.46607701    -0.82800
O58         O  0.93861195  0.15578704  0.46407329    -0.85400
C59         C  0.94104785  0.13129549  0.45123647     1.02300
O60         O  0.94446623  0.12591716  0.41001616    -0.78200
O61         O  0.99552777  0.14422940  0.38721683    -0.78300
C62         C  0.01565158  0.16032539  0.38397488     1.02200
Cr63       Cr  0.97710807  0.20859672  0.38539359     1.93700
Cr64       Cr  0.92455365  0.18419841  0.42425065     1.93200
Cr65       Cr  0.95909946  0.14985774  0.36005211     1.39100
O66         O  0.95376694  0.18081352  0.38960875    -1.23400
O67         O  0.94900940  0.23931180  0.88666913    -0.85700
O68         O  0.97581616  0.26560782  0.81945840    -0.82700
C69         C  0.98073855  0.28437898  0.79198476     0.97800
O70         O  0.98063969  0.30930725  0.80444153    -0.82800
O71         O  0.92713284  0.32582697  0.82211285    -0.85400
C72         C  0.90409302  0.32748972  0.84138860     1.02300
O73         O  0.90173515  0.31922142  0.88103268    -0.78200
O74         O  0.91108112  0.26319396  0.87776716    -0.78300
C75         C  0.92359580  0.24054832  0.87618326     1.02300
O76         O  0.98346066  0.26841714  0.95048864    -0.85700
O77         O  0.01342450  0.29197840  0.88012306    -0.82700
C78         C  0.01692922  0.31725209  0.88849599     0.97800
O79         O  0.99665713  0.33323599  0.88963605    -0.82800
O80         O  0.94459413  0.35203084  0.90413018    -0.85400
C81         C  0.93815671  0.34693158  0.94430183     1.02300
O82         O  0.93570204  0.32255336  0.95757995    -0.78200
O83         O  0.93910839  0.26620395  0.96150453    -0.78300
C84         C  0.96341866  0.26209139  0.97526218     1.02200
Cr85       Cr  0.97869960  0.26866187  0.88447479     1.93700
Cr86       Cr  0.96187791  0.32750476  0.85723690     1.93200
Cr87       Cr  0.92435085  0.29302639  0.91694541     1.39100
O88         O  0.95508279  0.29645456  0.88594690    -1.23400
O89         O  0.72744481  0.02417552  0.25694593    -0.85700
O90         O  0.69426865  0.98449905  0.29379339    -0.82700
C91         C  0.68335042  0.99786303  0.32556435     0.97800
O92         O  0.66395593  0.01442409  0.31742010    -0.82800
O93         O  0.63315196  0.05280206  0.27160671    -0.85400
C94         C  0.64757343  0.07426557  0.27369357     1.02300
O95         O  0.67058232  0.07506213  0.25405731    -0.78200
O96         O  0.71746713  0.05707068  0.21006847    -0.78300
C97         C  0.73337447  0.04681388  0.23895912     1.02300
O98         O  0.71467072  0.00496663  0.16905794    -0.85700
O99         O  0.67738295  0.96776318  0.20405423    -0.82700
C100        C  0.65645193  0.95910120  0.22472502     0.97800
O101        O  0.64627535  0.97345852  0.25559982    -0.82800
O102        O  0.62130223  0.01333907  0.20440493    -0.85400
C103        C  0.61911983  0.03475307  0.18120894     1.02300
O104        O  0.63704097  0.05358037  0.18339452    -0.78200
O105        O  0.68308883  0.03258860  0.14295268    -0.78300
C106        C  0.70292387  0.01641755  0.13640097     1.02200
Cr107      Cr  0.70132795  0.99707137  0.23082418     1.93700
Cr108      Cr  0.64353086  0.01398435  0.26007752     1.93200
Cr109      Cr  0.67692703  0.05212606  0.20002078     1.39100
O110        O  0.67407189  0.02115933  0.23019132    -1.23400
O111        O  0.77107698  0.98352951  0.79713032    -0.85700
O112        O  0.73772477  0.02134170  0.75799486    -0.82700
C113        C  0.73307433  0.04451922  0.74123186     0.97800
O114        O  0.74906547  0.05460270  0.71241313    -0.82800
O115        O  0.79763651  0.07137429  0.75199460    -0.85400
C116        C  0.82141718  0.07060319  0.76899169     1.02300
O117        O  0.83510714  0.04864537  0.76680159    -0.78200
O118        O  0.80322739  0.01293386  0.81625055    -0.78300
C119        C  0.78299088  0.99803719  0.82676136     1.02300
O120        O  0.78619423  0.96346325  0.70782796    -0.85700
O121        O  0.74939445  0.99966130  0.67066396    -0.82700
C122        C  0.76023705  0.01155173  0.63752153     0.97800
O123        O  0.77987138  0.02813298  0.64321464    -0.82800
O124        O  0.82767790  0.04695051  0.67907332    -0.85400
C125        C  0.84442002  0.02718524  0.67583197     1.02300
O126        O  0.84323520  0.00692406  0.70189401    -0.78200
O127        O  0.81819506  0.96898109  0.75815284    -0.78300
C128        C  0.80709123  0.95463970  0.72806955     1.02200
Cr129      Cr  0.76333732  0.99366522  0.73311745     1.93700
Cr130      Cr  0.78866322  0.04783055  0.69925809     1.93200
Cr131      Cr  0.82246875  0.00980373  0.75869812     1.39100
O132        O  0.79127623  0.01717299  0.73010494    -1.23400
O133        O  0.52776573  0.24366289  0.89838184    -0.85700
O134        O  0.50559905  0.21839843  0.82710125    -0.82700
C135        C  0.50298600  0.19978311  0.79838559     0.97800
O136        O  0.50030722  0.17512835  0.81025267    -0.82800
O137        O  0.55351110  0.16125572  0.83328058    -0.85400
C138        C  0.57518832  0.15793551  0.85575668     1.02300
O139        O  0.57532089  0.16422041  0.89665187    -0.78200
O140        O  0.56636248  0.21989497  0.89744112    -0.78300
C141        C  0.55357387  0.24205821  0.89140517     1.02300
O142        O  0.48999507  0.21393570  0.95603820    -0.85700
O143        O  0.46465913  0.19058184  0.88274497    -0.82700
C144        C  0.46159344  0.16529342  0.89147453     0.97800
O145        O  0.48198881  0.14947661  0.89136659    -0.82800
O146        O  0.53331037  0.13162200  0.90920117    -0.85400
C147        C  0.53504742  0.13500003  0.95092418     1.02300
O148        O  0.53652448  0.15866131  0.96767755    -0.78200
O149        O  0.53348679  0.21467944  0.97559082    -0.78300
C150        C  0.50836809  0.21790195  0.98503294     1.02200
Cr151      Cr  0.49856803  0.21452616  0.89137159     1.93700
Cr152      Cr  0.51752915  0.15682237  0.86327159     1.93200
Cr153      Cr  0.55076928  0.18928130  0.93164225     1.39100
O154        O  0.52215188  0.18696162  0.89537914    -1.23400
O155        O  0.48563280  0.28216583  0.32514183    -0.85700
O156        O  0.52482550  0.24879974  0.36161389    -0.82700
C157        C  0.54735670  0.24290666  0.38034252     0.97800
O158        O  0.55695485  0.25816955  0.41078333    -0.82800
O159        O  0.57510702  0.30616262  0.37239312    -0.85400
C160        C  0.57463760  0.32957503  0.35486879     1.02300
O161        O  0.55279764  0.34359850  0.35584176    -0.78200
O162        O  0.51593458  0.31327757  0.30607189    -0.78300
C163        C  0.50023059  0.29367197  0.29547992     1.02300
O164        O  0.46639593  0.29603882  0.41453493    -0.85700
O165        O  0.50366102  0.25842276  0.44950738    -0.82700
C166        C  0.51447561  0.26970481  0.48330503     0.97800
O167        O  0.53027214  0.28995652  0.47898358    -0.82800
O168        O  0.55103255  0.33677816  0.44450049    -0.85400
C169        C  0.53130592  0.35361190  0.44803262     1.02300
O170        O  0.51123007  0.35295217  0.42120854    -0.78200
O171        O  0.47264354  0.32883375  0.36607628    -0.78300
C172        C  0.45818914  0.31769797  0.39590177     1.02200
Cr173      Cr  0.49677304  0.27351876  0.38812281     1.93700
Cr174      Cr  0.55098786  0.29791517  0.42405464     1.93200
Cr175      Cr  0.51358441  0.33225912  0.36422370     1.39100
O176        O  0.52049854  0.30112082  0.39231717    -1.23400
O177        O  0.23812627  0.95403046  0.35757257    -0.85700
O178        O  0.21254050  0.97555384  0.28566850    -0.82700
C179        C  0.19407780  0.97788817  0.25655861     0.97800
O180        O  0.16889113  0.97916475  0.26746160    -0.82800
O181        O  0.15414943  0.92647655  0.29180770    -0.85400
C182        C  0.15210539  0.90481455  0.31428427     1.02300
O183        O  0.15882166  0.90494784  0.35498722    -0.78200
O184        O  0.21471758  0.91551690  0.35605683    -0.78300
C185        C  0.23719336  0.92822681  0.35172781     1.02300
O186        O  0.20743163  0.99144978  0.41438739    -0.85700
O187        O  0.18402932  0.01599310  0.34048831    -0.82700
C188        C  0.15823468  0.01919279  0.34579486     0.97800
O189        O  0.14226698  0.99889060  0.34692441    -0.82800
O190        O  0.12453489  0.94727798  0.36798008    -0.85400
C191        C  0.12806274  0.94449145  0.40963103     1.02300
O192        O  0.15197535  0.94357160  0.42603339    -0.78200
O193        O  0.20835309  0.94841356  0.43433676    -0.78300
C194        C  0.21218332  0.97343188  0.44332874     1.02200
Cr195      Cr  0.20819804  0.98252019  0.34982342     1.93700
Cr196      Cr  0.15004543  0.96272890  0.32112473     1.93200
Cr197      Cr  0.18330474  0.93040252  0.38994694     1.39100
O198        O  0.18048826  0.95874493  0.35360600    -1.23400
O199        O  0.27970074  0.00202701  0.78364277    -0.85700
O200        O  0.24537705  0.96320828  0.82080502    -0.82700
C201        C  0.23923308  0.94099653  0.84005816     0.97800
O202        O  0.25461007  0.93171613  0.87062915    -0.82800
O203        O  0.30299755  0.91165892  0.83418952    -0.85400
C204        C  0.32597574  0.91191198  0.81446977     1.02300
O205        O  0.33989285  0.93373815  0.81253589    -0.78200
O206        O  0.30920242  0.97071140  0.76264176    -0.78300
C207        C  0.29018933  0.98744572  0.75306837     1.02300
O208        O  0.29468876  0.02068525  0.87234589    -0.85700
O209        O  0.25536816  0.98507608  0.90765123    -0.82700
C210        C  0.26641757  0.97491987  0.94190175     0.97800
O211        O  0.28693955  0.95936128  0.93800757    -0.82800
O212        O  0.33377746  0.93743955  0.90411724    -0.85400
C213        C  0.35138257  0.95654303  0.90520674     1.02300
O214        O  0.35113943  0.97556916  0.87673832    -0.78200
O215        O  0.32641621  0.01376374  0.82201229    -0.78300
C216        C  0.31617998  0.02864963  0.85232720     1.02200
Cr217      Cr  0.27097341  0.99099582  0.84646195     1.93700
Cr218      Cr  0.29473611  0.93739610  0.88394021     1.93200
Cr219      Cr  0.32925239  0.97297151  0.82058227     1.39100
O220        O  0.29823257  0.96688600  0.85032153    -1.23400
O221        O  0.45113711  0.74425660  0.69411536    -0.85700
O222        O  0.47560861  0.71558176  0.75998653    -0.82700
C223        C  0.47779476  0.69612345  0.78714135     0.97800
O224        O  0.47661707  0.67150679  0.77362108    -0.82800
O225        O  0.42305602  0.65885175  0.75156983    -0.85400
C226        C  0.40047073  0.65811598  0.73090947     1.02300
O227        O  0.39952362  0.66646253  0.69120739    -0.78200
O228        O  0.41168474  0.72198271  0.69910590    -0.78300
C229        C  0.42546818  0.74381509  0.70314907     1.02300
O230        O  0.48488796  0.71437917  0.62908817    -0.85700
O231        O  0.51250133  0.68834177  0.69969512    -0.82700
C232        C  0.51499393  0.66282931  0.69244605     0.97800
O233        O  0.49393157  0.64791106  0.68963497    -0.82800
O234        O  0.44153731  0.63297620  0.66925080    -0.85400
C235        C  0.43772745  0.63913727  0.62857641     1.02300
O236        O  0.43565478  0.66386318  0.61695375    -0.78200
O237        O  0.44090406  0.71998954  0.61787892    -0.78300
C238        C  0.46532522  0.72142756  0.60380627     1.02200
Cr239      Cr  0.47927171  0.71350802  0.69509365     1.93700
Cr240      Cr  0.45849000  0.65539645  0.71896643     1.93200
Cr241      Cr  0.42427799  0.69261875  0.65894368     1.39100
O242        O  0.45418386  0.68713385  0.69135038    -1.23400
O243        O  0.47444527  0.76691968  0.26012325    -0.85700
O244        O  0.45089593  0.73862436  0.19187519    -0.82700
C245        C  0.42512243  0.73917715  0.19984978     0.97800
O246        O  0.41181227  0.76120263  0.19613528    -0.82800
O247        O  0.40012261  0.81627542  0.19222830    -0.85400
C248        C  0.40114880  0.82432839  0.23223529     1.02300
O249        O  0.42364684  0.82303993  0.25321428    -0.78200
O250        O  0.47794455  0.81087006  0.27346980    -0.78300
C251        C  0.47779497  0.78635947  0.28726311     1.02300
O252        O  0.51218588  0.79434570  0.20050391    -0.85700
O253        O  0.48574599  0.76897624  0.12998779    -0.82700
C254        C  0.46681199  0.76214598  0.10344793     0.97800
O255        O  0.44192614  0.76464081  0.11512866    -0.82800
O256        O  0.43610131  0.82086880  0.11785789    -0.85400
C257        C  0.43675546  0.84532605  0.13163087     1.02300
O258        O  0.44088862  0.85029136  0.17261754    -0.78200
O259        O  0.49369051  0.83464622  0.18881835    -0.78300
C260        C  0.51453197  0.81935932  0.18979942     1.02200
Cr261      Cr  0.47906066  0.76928780  0.19525016     1.93700
Cr262      Cr  0.42478058  0.79106206  0.15788396     1.93200
Cr263      Cr  0.45883234  0.82721711  0.22002697     1.39100
O264        O  0.45433302  0.79584677  0.19127392    -1.23400
O265        O  0.98615769  0.69669276  0.26804129    -0.85700
O266        O  0.02323236  0.73144283  0.22925384    -0.82700
C267        C  0.04545830  0.73804401  0.21023472     0.97800
O268        O  0.05500028  0.72339695  0.17890275    -0.82800
O269        O  0.07650409  0.67663996  0.21604740    -0.85400
C270        C  0.07691126  0.65409788  0.23632811     1.02300
O271        O  0.05594420  0.63882327  0.23621603    -0.78200
O272        O  0.01815775  0.66742591  0.28750236    -0.78300
C273        C  0.00130791  0.68615154  0.29794787     1.02300
O274        O  0.96661207  0.68103135  0.17963098    -0.85700
O275        O  0.00062790  0.72018605  0.14207215    -0.82700
C276        C  0.01139327  0.70933409  0.10784743     0.97800
O277        O  0.02838425  0.69009522  0.11218919    -0.82800
O278        O  0.05197452  0.64436135  0.14542973    -0.85400
C279        C  0.03309604  0.62642678  0.14402166     1.02300
O280        O  0.01408213  0.62614261  0.17282146    -0.78200
O281        O  0.97523818  0.64895632  0.22843403    -0.78300
C282        C  0.95996610  0.65902177  0.19868361     1.02200
Cr283      Cr  0.99598221  0.70525659  0.20431404     1.93700
Cr284      Cr  0.05062051  0.68334232  0.16595426     1.93200
Cr285      Cr  0.01620276  0.64776518  0.22916321     1.39100
O286        O  0.02103302  0.67887357  0.19969817    -1.23400
O287        O  0.02555587  0.74488320  0.69493981    -0.85700
O288        O  0.99893731  0.76799720  0.76542084    -0.82700
C289        C  0.99808837  0.78571787  0.79606635     0.97800
O290        O  0.99925775  0.81105110  0.78715420    -0.82800
O291        O  0.05030872  0.82898282  0.76172283    -0.85400
C292        C  0.07163840  0.83317243  0.73901072     1.02300
O293        O  0.07198257  0.82592737  0.69864576    -0.78200
O294        O  0.06358737  0.76942124  0.70016281    -0.78300
C295        C  0.05115338  0.74676118  0.70403759     1.02300
O296        O  0.98875563  0.77443840  0.63435804    -0.85700
O297        O  0.96052929  0.79553651  0.70797358    -0.82700
C298        C  0.95638555  0.82114839  0.70851302     0.97800
O299        O  0.97609077  0.83785879  0.71041333    -0.82800
O300        O  0.02685176  0.85722288  0.68563698    -0.85400
C301        C  0.03049539  0.85352770  0.64404611     1.02300
O302        O  0.03337942  0.82976706  0.62796393    -0.78200
O303        O  0.03271117  0.77327431  0.62014088    -0.78300
C304        C  0.00819883  0.76992779  0.60733689     1.02200
Cr305      Cr  0.99522939  0.77315714  0.70038772     1.93700
Cr306      Cr  0.01343702  0.83116659  0.73337424     1.93200
Cr307      Cr  0.04794330  0.79968686  0.66475173     1.39100
O308        O  0.01855747  0.80138603  0.69987214    -1.23400
O309        O  0.24559867  0.52184832  0.31727281    -0.85700
O310        O  0.27871458  0.48145860  0.28259491    -0.82700
C311        C  0.29062832  0.49515694  0.25229845     0.97800
O312        O  0.31042146  0.51084416  0.26222091    -0.82800
O313        O  0.34123377  0.54800204  0.31023083    -0.85400
C314        C  0.32695840  0.56951908  0.30729651     1.02300
O315        O  0.30369937  0.57066976  0.32601046    -0.78200
O316        O  0.25555677  0.55385832  0.36619945    -0.78300
C317        C  0.24035594  0.54467319  0.33540211     1.02300
O318        O  0.25494979  0.50191488  0.40617295    -0.85700
O319        O  0.29266250  0.46433221  0.37340982    -0.82700
C320        C  0.31434502  0.45535671  0.35520141     0.97800
O321        O  0.32525055  0.46868097  0.32381971    -0.82800
O322        O  0.35032873  0.50785820  0.37746855    -0.85400
C323        C  0.35121978  0.52836877  0.40325250     1.02300
O324        O  0.33443708  0.54800484  0.39909976    -0.78200
O325        O  0.28667690  0.52842560  0.43493335    -0.78300
C326        C  0.26589103  0.51321271  0.43984270     1.02200
Cr327      Cr  0.27012876  0.49392368  0.34512980     1.93700
Cr328      Cr  0.32945170  0.50931876  0.32041135     1.93200
Cr329      Cr  0.29530913  0.54787144  0.37903894     1.39100
O330        O  0.29819491  0.51710425  0.34837890    -1.23400
O331        O  0.20984973  0.49977018  0.78467521    -0.85700
O332        O  0.23619615  0.52679929  0.85133780    -0.82700
C333        C  0.23549689  0.55245024  0.84298160     0.97800
O334        O  0.21336561  0.56586246  0.84778651    -0.82800
O335        O  0.15720634  0.57759013  0.85718037    -0.85400
C336        C  0.15129597  0.57897552  0.81644664     1.02300
O337        O  0.15341723  0.55775736  0.79303172    -0.78200
O338        O  0.16692820  0.50695156  0.76397337    -0.78300
C339        C  0.19193969  0.50208689  0.75451251     1.02300
O340        O  0.18043558  0.46519243  0.84704232    -0.85700
O341        O  0.20482427  0.49299817  0.91594488    -0.82700
C342        C  0.21266662  0.51189921  0.94150862     0.97800
O343        O  0.21186766  0.53609256  0.92747174    -0.82800
O344        O  0.15499382  0.53865470  0.92611191    -0.85400
C345        C  0.13042982  0.53547537  0.91314058     1.02300
O346        O  0.12481921  0.53388536  0.87153748    -0.78200
O347        O  0.13938130  0.48373260  0.84046454    -0.78300
C348        C  0.15437196  0.46309635  0.84681643     1.02200
Cr349      Cr  0.20570401  0.49807625  0.84997235     1.93700
Cr350      Cr  0.18395206  0.55217331  0.88659029     1.93200
Cr351      Cr  0.14861197  0.52078815  0.81972563     1.39100
O352        O  0.17934922  0.52326206  0.85146293    -1.23400
C353        C  0.25371985  0.50978882  0.48526209    -0.20200
C354        C  0.23297869  0.49012555  0.49490726     0.36000
C355        C  0.22233558  0.48829973  0.53853138    -0.26200
C356        C  0.23164254  0.50575306  0.57249937     0.02500
C357        C  0.25209388  0.52535092  0.56316418     0.27300
C358        C  0.26295078  0.52711932  0.51985307    -0.25300
N359        N  0.22294111  0.47185036  0.46087879    -0.82700
H360        H  0.20660069  0.47325078  0.54614209     0.13100
C361        C  0.22011532  0.50318205  0.61807031     0.02400
N362        N  0.26182673  0.54331265  0.59786744    -0.81200
H363        H  0.27853685  0.54244806  0.51308307     0.17900
C364        C  0.23472803  0.48823365  0.65001735    -0.26100
C365        C  0.22534766  0.48648265  0.69430632     0.35900
C366        C  0.20083822  0.50028385  0.70702079    -0.20100
C367        C  0.18584356  0.51457322  0.67437706    -0.25400
C368        C  0.19534910  0.51630780  0.63011668     0.27300
H369        H  0.25369100  0.47809427  0.64034377     0.13100
N370        N  0.24070174  0.47081568  0.72632176    -0.82600
H371        H  0.16720141  0.52535667  0.68377852     0.17900
N372        N  0.18022718  0.53170899  0.59749982    -0.81200
H373        H  0.25830989  0.46231005  0.71169027     0.33500
H374        H  0.22827858  0.45440087  0.73616604     0.38000
H375        H  0.16236961  0.54001385  0.61162349     0.33500
H376        H  0.19251677  0.54827415  0.58789386     0.30200
H377        H  0.27718995  0.55635383  0.58575021     0.33500
H378        H  0.24536250  0.55580747  0.60751269     0.30200
H379        H  0.21112724  0.48346981  0.43877567     0.38100
H380        H  0.20948047  0.45737164  0.47447868     0.33600
C381        C  0.28057259  0.49338516  0.20550229    -0.20200
C382        C  0.29652485  0.50289874  0.16919723     0.36000
C383        C  0.28462068  0.50420342  0.12655064    -0.26200
C384        C  0.25726393  0.49604491  0.11916291     0.02500
C385        C  0.24165894  0.48547488  0.15476921     0.27300
C386        C  0.25351761  0.48408644  0.19749223    -0.25300
N387        N  0.32464676  0.51138207  0.17565343    -0.82700
H388        H  0.29663666  0.51193188  0.09884407     0.13100
C389        C  0.24501435  0.49992238  0.07428514     0.02400
N390        N  0.21358824  0.47700593  0.14767295    -0.81200
H391        H  0.24109207  0.47680196  0.22502223     0.17900
C392        C  0.23550523  0.47723868  0.04986925    -0.26100
C393        C  0.22488467  0.48025292  0.00641415     0.35900
C394        C  0.22354986  0.50668134  0.98719555    -0.20100
C395        C  0.23271009  0.52933561  0.01243175    -0.25400
C396        C  0.24327112  0.52625994  0.05560137     0.27300
H397        H  0.23689604  0.45703261  0.06451706     0.13100
N398        N  0.21555091  0.45658861  0.98210243    -0.82600
H399        H  0.23164592  0.54975363  0.99854053     0.17900
N400        N  0.25214860  0.54982908  0.08072995    -0.81200
H401        H  0.21663198  0.43906475  0.00195592     0.33500
H402        H  0.22928374  0.45341997  0.95572729     0.38000
H403        H  0.24970548  0.56773054  0.06211880     0.33500
H404        H  0.23917472  0.55166705  0.10841927     0.30200
H405        H  0.20498182  0.46962583  0.17724257     0.33500
H406        H  0.20223877  0.49436804  0.13887534     0.30200
H407        H  0.33592578  0.49409012  0.18502085     0.38100
H408        H  0.33322617  0.51827779  0.14574738     0.33600
C409        C  0.06681655  0.72204647  0.71814897    -0.20200
C410        C  0.05393548  0.70035603  0.74137706     0.36000
C411        C  0.06967669  0.67767543  0.75484497    -0.26200
C412        C  0.09809866  0.67622275  0.74640560     0.02500
C413        C  0.11097275  0.69759703  0.72267776     0.27300
C414        C  0.09522614  0.72030550  0.70891645    -0.25300
N415        N  0.02511636  0.70170779  0.75242702    -0.82700
H416        H  0.05981874  0.66115908  0.77289692     0.13100
C417        C  0.11398016  0.65260348  0.76446196     0.02400
N418        N  0.13999545  0.69633081  0.71316740    -0.81200
H419        H  0.10521581  0.73676370  0.69092980     0.17900
C420        C  0.12791649  0.63469921  0.73546266    -0.26100
C421        C  0.14113723  0.61096684  0.75158133     0.35900
C422        C  0.14011353  0.60490619  0.79765939    -0.20100
C423        C  0.12715619  0.62355450  0.82668633    -0.25400
C424        C  0.11416968  0.64726721  0.81064166     0.27300
H425        H  0.12797671  0.63897479  0.70004499     0.13100
N426        N  0.15548630  0.59305435  0.72135222    -0.82600
H427        H  0.12648976  0.61927546  0.86208686     0.17900
N428        N  0.10082532  0.66585853  0.84102983    -0.81200
H429        H  0.15412454  0.60033778  0.68869186     0.33500
H430        H  0.17638771  0.59353968  0.72993460     0.38000
H431        H  0.10257315  0.65891587  0.87383537     0.33500
H432        H  0.11133271  0.68454655  0.83953814     0.30200
H433        H  0.14624217  0.71356180  0.69518261     0.33500
H434        H  0.15051953  0.69699108  0.74357335     0.30200
H435        H  0.02261021  0.71767675  0.77537734     0.38100
H436        H  0.01878540  0.68384541  0.76861669     0.33600
C437        C  0.10233803  0.64393190  0.25778717    -0.20200
C438        C  0.10075080  0.62645196  0.29513575     0.36000
C439        C  0.12433427  0.61225925  0.30905027    -0.26200
C440        C  0.14953036  0.61542306  0.28680052     0.02500
C441        C  0.15168869  0.63451669  0.25176531     0.27300
C442        C  0.12799793  0.64865630  0.23755040    -0.25300
N443        N  0.07499631  0.62269985  0.31809464    -0.82700
H444        H  0.12284441  0.59788160  0.33638539     0.13100
C445        C  0.17295710  0.59747961  0.29923565     0.02400
N446        N  0.17776557  0.63890651  0.23016519    -0.81200
H447        H  0.12928380  0.66224940  0.20915032     0.17900
C448        C  0.18408902  0.57950640  0.26727858    -0.26100
C449        C  0.20575650  0.56152668  0.27811922     0.35900
C450        C  0.21618132  0.56134739  0.32209889    -0.20100
C451        C  0.20462770  0.57911362  0.35407262    -0.25400
C452        C  0.18329516  0.59723872  0.34308836     0.27300
H453        H  0.17580959  0.57955946  0.23371944     0.13100
N454        N  0.21747145  0.54398667  0.24450234    -0.82600
H455        H  0.21250205  0.57907932  0.38788728     0.17900
N456        N  0.17226472  0.61560836  0.37615068    -0.81200
H457        H  0.20720056  0.54645383  0.21412384     0.33500
H458        H  0.23781849  0.55031513  0.23925921     0.38000
H459        H  0.18202614  0.61272887  0.40686826     0.33500
H460        H  0.17685376  0.63558403  0.36611162     0.30200
H461        H  0.17582959  0.65344569  0.20485541     0.33500
H462        H  0.19123678  0.64723052  0.25384388     0.30200
H463        H  0.06952683  0.64157943  0.33205988     0.38100
H464        H  0.07728721  0.60905071  0.34461254     0.33600
C465        C  0.03439780  0.60564524  0.10822020    -0.20200
C466        C  0.03750108  0.61407641  0.06359303     0.36000
C467        C  0.04593034  0.59507247  0.03128172    -0.26200
C468        C  0.05126373  0.56774371  0.04258119     0.02500
C469        C  0.04546353  0.55867754  0.08626789     0.27300
C470        C  0.03693639  0.57779961  0.11882966    -0.25300
N471        N  0.03326922  0.64225313  0.05172100    -0.82700
H472        H  0.05035904  0.60212617  0.99782248     0.13100
C473        C  0.06791104  0.55115958  0.01085030     0.02400
N474        N  0.04960913  0.53043562  0.09775030    -0.81200
H475        H  0.03421336  0.57134301  0.15306832     0.17900
C476        C  0.09415874  0.54262759  0.02448431    -0.26100
C477        C  0.11420195  0.53502112  0.99325247     0.35900
C478        C  0.10810926  0.53625648  0.94712435    -0.20100
C479        C  0.08081843  0.54151023  0.93390120    -0.25400
C480        C  0.06062113  0.54895320  0.96541530     0.27300
H481        H  0.09993993  0.54395771  0.05933363     0.13100
N482        N  0.14105283  0.52721265  0.00865647    -0.82600
H483        H  0.07562136  0.54161439  0.89878111     0.17900
N484        N  0.03315122  0.55575910  0.95135644    -0.81200
H485        H  0.13882551  0.51038703  0.02981834     0.33500
H486        H  0.14924012  0.54344050  0.02729802     0.38000
H487        H  0.03114893  0.55331329  0.91686175     0.33500
H488        H  0.01973323  0.54165569  0.96604414     0.30200
H489        H  0.04463114  0.52712815  0.13121768     0.33500
H490        H  0.03576082  0.51878591  0.07883823     0.30200
H491        H  0.01243641  0.64668923  0.05705767     0.38100
H492        H  0.03692877  0.64525356  0.01773054     0.33600
C493        C  0.00332410  0.75936755  0.56119304    -0.20200
C494        C  0.02186785  0.76593659  0.52630636     0.36000
C495        C  0.01936548  0.75285857  0.48463018    -0.26200
C496        C  0.99862987  0.73349563  0.47651346     0.02500
C497        C  0.97934980  0.72766985  0.51045464     0.27300
C498        C  0.98183203  0.74071204  0.55249248    -0.25300
N499        N  0.04324804  0.78593780  0.53330999    -0.82700
H500        H  0.03379133  0.75769368  0.45820455     0.13100
C501        C  0.99719510  0.72032568  0.43158926     0.02400
N502        N  0.95756673  0.70833704  0.50220990    -0.81200
H503        H  0.96753042  0.73561429  0.57893766     0.17900
C504        C  0.00680120  0.69344010  0.42535837    -0.26100
C505        C  0.00802731  0.68144251  0.38238394     0.35900
C506        C  0.99924420  0.69666253  0.34481431    -0.20100
C507        C  0.98917227  0.72339811  0.35163603    -0.25400
C508        C  0.98825221  0.73537204  0.39435335     0.27300
H509        H  0.01389618  0.68201030  0.45404850     0.13100
N510        N  0.01826594  0.65401975  0.37692315    -0.82600
H511        H  0.98264900  0.73542194  0.32324665     0.17900
N512        N  0.97879740  0.76306157  0.40005254    -0.81200
H513        H  0.02431482  0.64591085  0.40762101     0.33500
H514        H  0.00194299  0.64188467  0.36547234     0.38000
H515        H  0.97333032  0.77155935  0.36935619     0.33500
H516        H  0.96083012  0.76242202  0.41927744     0.30200
H517        H  0.94519264  0.70621292  0.53052893     0.33500
H518        H  0.94497193  0.71644975  0.47723816     0.30200
H519        H  0.05529135  0.78816971  0.50463923     0.38100
H520        H  0.03367772  0.80482752  0.53887068     0.33600
C521        C  0.99598283  0.77618512  0.84315717    -0.20200
C522        C  0.00793587  0.79092211  0.87905039     0.36000
C523        C  0.00768373  0.77953907  0.92218475    -0.26200
C524        C  0.99574001  0.75386977  0.93028722     0.02500
C525        C  0.98277102  0.73966542  0.89511380     0.27300
C526        C  0.98319558  0.75085470  0.85192056    -0.25300
N527        N  0.02113875  0.81687039  0.87148633    -0.82700
H528        H  0.01757834  0.79034812  0.94946683     0.13100
C529        C  0.99869098  0.74136244  0.97510319     0.02400
N530        N  0.96905608  0.71405948  0.90346282    -0.81200
H531        H  0.97366953  0.73958311  0.82480063     0.17900
C532        C  0.97947725  0.74729499  0.00872892    -0.26100
C533        C  0.98253657  0.73658842  0.05212785     0.35900
C534        C  0.00559555  0.71990409  0.06212721    -0.20100
C535        C  0.02442265  0.71368075  0.02781356    -0.25400
C536        C  0.02125089  0.72421768  0.98461721     0.27300
H537        H  0.96210796  0.76040318  0.00105253     0.13100
N538        N  0.96231747  0.74258159  0.08579550    -0.82600
H539        H  0.04221994  0.70103556  0.03489880     0.17900
N540        N  0.04141077  0.71834907  0.95072867    -0.81200
H541        H  0.94694832  0.75538615  0.07312371     0.33500
H542        H  0.95264435  0.72414423  0.09414100     0.38000
H543        H  0.05714412  0.70599411  0.96344098     0.33500
H544        H  0.03177348  0.70690735  0.92568535     0.30200
H545        H  0.96005012  0.70650940  0.87421953     0.33500
H546        H  0.98390966  0.69974922  0.91299681     0.30200
H547        H  0.03853620  0.81327122  0.85175556     0.38100
H548        H  0.02832201  0.82521172  0.90148307     0.33600
C549        C  0.41024532  0.71380066  0.21258616    -0.20200
C550        C  0.38179815  0.71040136  0.20332937     0.36000
C551        C  0.36819677  0.68661162  0.21758047    -0.26200
C552        C  0.38220762  0.66614335  0.24099714     0.02500
C553        C  0.41061526  0.66931519  0.25002500     0.27300
C554        C  0.42441648  0.69298441  0.23526662    -0.25300
N555        N  0.36681488  0.73093179  0.17906917    -0.82700
H556        H  0.34648692  0.68389677  0.21018309     0.13100
C557        C  0.36670886  0.64156075  0.25586518     0.02400
N558        N  0.42516298  0.64875821  0.27487766    -0.81200
H559        H  0.44614511  0.69554775  0.24264276     0.17900
C560        C  0.37492714  0.61559790  0.24090635    -0.26100
C561        C  0.36111892  0.59181302  0.25490659     0.35900
C562        C  0.33891987  0.59403469  0.28538438    -0.20100
C563        C  0.32984981  0.62017009  0.29844366    -0.25400
C564        C  0.34356742  0.64394058  0.28414149     0.27300
H565        H  0.39217857  0.61393613  0.21809692     0.13100
N566        N  0.36957733  0.56546656  0.23826871    -0.82600
H567        H  0.31276065  0.62206188  0.32150233     0.17900
N568        N  0.33454667  0.67046080  0.29914889    -0.81200
H569        H  0.38627334  0.56744034  0.21645678     0.33500
H570        H  0.35322902  0.55752268  0.21949899     0.38000
H571        H  0.31713977  0.66869559  0.31950052     0.33500
H572        H  0.35022574  0.67876588  0.31895855     0.30200
H573        H  0.44590199  0.65418184  0.27866786     0.33500
H574        H  0.41667881  0.64824266  0.30690731     0.30200
H575        H  0.37489392  0.73153821  0.14677742     0.38100
H576        H  0.34604072  0.72549188  0.17590680     0.33600
C577        C  0.26087739  0.56756713  0.82981438    -0.20200
C578        C  0.28381757  0.55460096  0.80956712     0.36000
C579        C  0.30648483  0.57057923  0.79590742    -0.26200
C580        C  0.30685812  0.59903654  0.80251504     0.02500
C581        C  0.28443599  0.61188397  0.82365047     0.27300
C582        C  0.26166921  0.59610501  0.83681059    -0.25300
N583        N  0.28377633  0.52554893  0.80156756    -0.82700
H584        H  0.32388315  0.56087443  0.77961526     0.13100
C585        C  0.33060673  0.61531142  0.78621851     0.02400
N586        N  0.28492061  0.64094295  0.83159347    -0.81200
H587        H  0.24444066  0.60624642  0.85284743     0.17900
C588        C  0.32680478  0.63325780  0.75042197    -0.26100
C589        C  0.34895219  0.64842479  0.73294172     0.35900
C590        C  0.37565915  0.64534705  0.75155806    -0.20100
C591        C  0.37906558  0.62800499  0.78853536    -0.25400
C592        C  0.35680539  0.61299545  0.80602398     0.27300
H593        H  0.30646542  0.63517627  0.73577226     0.13100
N594        N  0.34435557  0.66673874  0.69624411    -0.82600
H595        H  0.39932648  0.62554376  0.80319148     0.17900
N596        N  0.36068656  0.59521772  0.84359198    -0.81200
H597        H  0.32372449  0.66616044  0.68611010     0.33500
H598        H  0.34808400  0.68664624  0.70773374     0.38000
H599        H  0.38122291  0.59567630  0.85418498     0.33500
H600        H  0.34887218  0.60297773  0.86991345     0.30200
H601        H  0.26676331  0.64728829  0.84731785     0.33500
H602        H  0.30101977  0.64500345  0.85386286     0.30200
H603        H  0.28557452  0.51590505  0.83248566     0.38100
H604        H  0.30120462  0.51976467  0.78331605     0.33600
C605        C  0.43310056  0.61753530  0.59455211    -0.20200
C606        C  0.44222489  0.59020575  0.59989902     0.36000
C607        C  0.43424280  0.57017636  0.56843522    -0.26200
C608        C  0.41781365  0.57719715  0.53177561     0.02500
C609        C  0.40959897  0.60457950  0.52562311     0.27300
C610        C  0.41752332  0.62443282  0.55676550    -0.25300
N611        N  0.45923087  0.58285421  0.63723127    -0.82700
H612        H  0.44023029  0.54899543  0.57299918     0.13100
C613        C  0.40581418  0.55581023  0.50282014     0.02400
N614        N  0.39177123  0.61178092  0.48912836    -0.81200
H615        H  0.41034606  0.64525984  0.55240445     0.17900
C616        C  0.38004335  0.54532220  0.51501858    -0.26100
C617        C  0.36286822  0.53298854  0.48321053     0.35900
C618        C  0.37191129  0.53083756  0.43870869    -0.20100
C619        C  0.39894976  0.53837881  0.42762485    -0.25400
C620        C  0.41610786  0.55104019  0.45951043     0.27300
H621        H  0.37229798  0.54910350  0.54837782     0.13100
N622        N  0.33536819  0.52469211  0.49492280    -0.82600
H623        H  0.40570636  0.53677716  0.39328107     0.17900
N624        N  0.44327452  0.56029915  0.44759919    -0.81200
H625        H  0.33164372  0.52816376  0.52881432     0.33500
H626        H  0.33398085  0.50354285  0.48983957     0.38000
H627        H  0.44768328  0.55510997  0.41451443     0.33500
H628        H  0.44358561  0.58167292  0.44937714     0.30200
H629        H  0.38659173  0.63255168  0.49049558     0.33500
H630        H  0.40276831  0.60896793  0.45953041     0.30200
H631        H  0.47795341  0.59329310  0.63391242     0.38100
H632        H  0.46390619  0.56195474  0.63631824     0.33600
C633        C  0.48140430  0.77973503  0.33545117    -0.20200
C634        C  0.48026445  0.79978046  0.36977508     0.36000
C635        C  0.48126257  0.79145081  0.41475303    -0.26200
C636        C  0.48298330  0.76366105  0.42596066     0.02500
C637        C  0.48519437  0.74383969  0.39207226     0.27300
C638        C  0.48453966  0.75202343  0.34737275    -0.25300
N639        N  0.47719414  0.82831053  0.35921216    -0.82700
H640        H  0.47934254  0.80652546  0.44117185     0.13100
C641        C  0.47884314  0.75482309  0.47262545     0.02400
N642        N  0.48712746  0.71530165  0.40339475    -0.81200
H643        H  0.48577331  0.73641057  0.32170183     0.17900
C644        C  0.45348351  0.74304975  0.48362566    -0.26100
C645        C  0.44892209  0.73154884  0.52568633     0.35900
C646        C  0.47016426  0.73236519  0.55823352    -0.20100
C647        C  0.49557459  0.74454749  0.54723816    -0.25400
C648        C  0.50013759  0.75572705  0.50453452     0.27300
H649        H  0.43736727  0.74215922  0.45859724     0.13100
N650        N  0.42294576  0.71847251  0.53491653    -0.82600
H651        H  0.51183088  0.74542489  0.57197956     0.17900
N652        N  0.52625904  0.76776878  0.49329321    -0.81200
H653        H  0.42677094  0.69754879  0.53883794     0.33500
H654        H  0.40949061  0.72025616  0.50783483     0.38000
H655        H  0.53969431  0.76694500  0.52052230     0.33500
H656        H  0.53508833  0.75579383  0.46811087     0.30200
H657        H  0.48817637  0.70318682  0.37462974     0.33500
H658        H  0.50569390  0.71248041  0.42048693     0.30200
H659        H  0.45747061  0.83092991  0.34579188     0.38100
H660        H  0.47788025  0.84026567  0.38818107     0.33600
C661        C  0.48151277  0.70297389  0.83523656    -0.20200
C662        C  0.48091737  0.68305761  0.86946968     0.36000
C663        C  0.48233006  0.69158035  0.91431609    -0.26200
C664        C  0.48372536  0.71945207  0.92570431     0.02500
C665        C  0.48511565  0.73923274  0.89179481     0.27300
C666        C  0.48436006  0.73079678  0.84713856    -0.25300
N667        N  0.47822109  0.65442266  0.85900066    -0.82700
H668        H  0.48126939  0.67649982  0.94068184     0.13100
C669        C  0.48086060  0.72801244  0.97293153     0.02400
N670        N  0.48630926  0.76791503  0.90284961    -0.81200
H671        H  0.48507336  0.74634352  0.82149579     0.17900
C672        C  0.50150912  0.74399240  0.99310778    -0.26100
C673        C  0.49774769  0.75530245  0.03592370     0.35900
C674        C  0.47298099  0.74998734  0.05920447    -0.20100
C675        C  0.45282184  0.73320142  0.03933387    -0.25400
C676        C  0.45636625  0.72239196  0.99640644     0.27300
H677        H  0.52022496  0.74835387  0.97471165     0.13100
N678        N  0.51853880  0.77277618  0.05502159    -0.82600
H679        H  0.43387082  0.72884409  0.05709119     0.17900
N680        N  0.43483097  0.70638290  0.97602243    -0.81200
H681        H  0.53552435  0.77430460  0.03370104     0.33500
H682        H  0.51019809  0.79246334  0.05761245     0.38000
H683        H  0.41823182  0.70395881  0.99790316     0.33500
H684        H  0.42737486  0.71739284  0.94872989     0.30200
H685        H  0.48742084  0.77982300  0.87400335     0.33500
H686        H  0.46779647  0.77309251  0.91862238     0.30200
H687        H  0.45834200  0.65135244  0.84641810     0.38100
H688        H  0.47956190  0.64260126  0.88791758     0.33600
C689        C  0.09572839  0.84826320  0.75780930    -0.20200
C690        C  0.09280574  0.86834919  0.79173385     0.36000
C691        C  0.11596233  0.88384748  0.80517975    -0.26200
C692        C  0.14181225  0.87987731  0.78525182     0.02500
C693        C  0.14480380  0.85946004  0.75223359     0.27300
C694        C  0.12186534  0.84414037  0.73861750    -0.25300
N695        N  0.06631011  0.87354290  0.81151709    -0.82700
H696        H  0.11380343  0.89936911  0.83085713     0.13100
C697        C  0.16576846  0.89656047  0.80003584     0.02400
N698        N  0.17102238  0.85370974  0.73229308    -0.81200
H699        H  0.12452448  0.82886604  0.71266938     0.17900
C700        C  0.18120082  0.88774364  0.83664283    -0.26100
C701        C  0.20486281  0.90199234  0.85056960     0.35900
C702        C  0.21361509  0.92571333  0.82731592    -0.20100
C703        C  0.19759078  0.93481411  0.79108131    -0.25400
C704        C  0.17372973  0.92054470  0.77733628     0.27300
H705        H  0.17496677  0.86943509  0.85433848     0.13100
N706        N  0.21981116  0.89213466  0.88844705    -0.82600
H707        H  0.20374586  0.95303290  0.77313433     0.17900
N708        N  0.15732242  0.93054307  0.74093069    -0.81200
H709        H  0.20640935  0.89182333  0.91574897     0.33500
H710        H  0.22597324  0.87200891  0.88183367     0.38000
H711        H  0.16570462  0.94868863  0.72832303     0.33500
H712        H  0.15821512  0.91617040  0.71512136     0.30200
H713        H  0.18480472  0.84827325  0.75757006     0.33500
H714        H  0.17834476  0.87149050  0.71707604     0.30200
H715        H  0.06787555  0.88851019  0.83641576     0.38100
H716        H  0.05358426  0.88170013  0.78675541     0.33600
C717        C  0.33802854  0.88653597  0.79529020    -0.20200
C718        C  0.33634173  0.86111415  0.81757140     0.36000
C719        C  0.35089564  0.83838937  0.80059513    -0.26200
C720        C  0.36721740  0.84065314  0.76220160     0.02500
C721        C  0.36859843  0.86581078  0.73954085     0.27300
C722        C  0.35404515  0.88850934  0.75635449    -0.25300
N723        N  0.32077867  0.85868892  0.85815395    -0.82700
H724        H  0.34996877  0.81892866  0.81779662     0.13100
C725        C  0.38294760  0.81650980  0.74627577     0.02400
N726        N  0.38491883  0.86820516  0.69973927    -0.81200
H727        H  0.35551387  0.90799890  0.73933343     0.17900
C728        C  0.37175045  0.80002314  0.71251930    -0.26100
C729        C  0.38561766  0.77648109  0.69766536     0.35900
C730        C  0.41117293  0.76925912  0.71671998    -0.20100
C731        C  0.42280950  0.78623737  0.74958720    -0.25400
C732        C  0.40883634  0.80979829  0.76473617     0.27300
H733        H  0.35205617  0.80536769  0.69785561     0.13100
N734        N  0.37396960  0.76022122  0.66253832    -0.82600
H735        H  0.44249891  0.78075376  0.76413304     0.17900
N736        N  0.42057762  0.82673735  0.79914448    -0.81200
H737        H  0.37143695  0.77275124  0.63463442     0.33500
H738        H  0.35446119  0.75361987  0.67273577     0.38000
H739        H  0.43953153  0.81881263  0.80956461     0.33500
H740        H  0.42467992  0.84592649  0.78527175     0.30200
H741        H  0.38353478  0.88801619  0.68680482     0.33500
H742        H  0.40555112  0.86525041  0.70860287     0.30200
H743        H  0.33041918  0.87091785  0.88225127     0.38100
H744        H  0.32149019  0.83859172  0.87004065     0.33600
C745        C  0.37223049  0.95514257  0.94059727    -0.20200
C746        C  0.39855807  0.94448527  0.93138769     0.36000
C747        C  0.41348322  0.93187007  0.96584124    -0.26200
C748        C  0.40228316  0.92971089  0.00885537     0.02500
C749        C  0.37743784  0.94329549  0.01911957     0.27300
C750        C  0.36272138  0.95610783  0.98473804    -0.25300
N751        N  0.40870040  0.94407349  0.88640069    -0.82700
H752        H  0.43270669  0.92153652  0.95832535     0.13100
C753        C  0.41331424  0.90861944  0.03930593     0.02400
N754        N  0.36613862  0.94204488  0.06340186    -0.81200
H755        H  0.34239024  0.96432566  0.99149863     0.17900
C756        C  0.42501948  0.91606266  0.08028275    -0.26100
C757        C  0.43333040  0.89599208  0.11112849     0.35900
C758        C  0.43023015  0.86784864  0.10009026    -0.20100
C759        C  0.41903168  0.86072993  0.05838952    -0.25400
C760        C  0.41010095  0.88071681  0.02838211     0.27300
H761        H  0.42702750  0.93759165  0.08858598     0.13100
N762        N  0.44473055  0.90423975  0.15334863    -0.82600
H763        H  0.41620021  0.83937047  0.04960530     0.17900
N764        N  0.39699407  0.87280304  0.98724767    -0.81200
H765        H  0.44770536  0.92544900  0.15431024     0.33500
H766        H  0.42996601  0.90000582  0.17776913     0.38000
H767        H  0.39634891  0.85147738  0.98406388     0.33500
H768        H  0.37650418  0.87942375  0.98863242     0.30200
H769        H  0.34780471  0.95325272  0.06530828     0.33500
H770        H  0.36094289  0.92165234  0.06986072     0.30200
H771        H  0.41153800  0.96441317  0.87661098     0.38100
H772        H  0.42809003  0.93475336  0.88505288     0.33600
C773        C  0.06093770  0.76304257  0.22428432    -0.20200
C774        C  0.04879803  0.78422331  0.25002134     0.36000
C775        C  0.06481183  0.80708371  0.26259659    -0.26200
C776        C  0.09258912  0.80940697  0.24993317     0.02500
C777        C  0.10473613  0.78832014  0.22447481     0.27300
C778        C  0.08884625  0.76546186  0.21196346    -0.25300
N779        N  0.02032314  0.78265160  0.26313475    -0.82700
H780        H  0.05560645  0.82323449  0.28248664     0.13100
C781        C  0.10877330  0.83392362  0.26394114     0.02400
N782        N  0.13316601  0.79026774  0.21125205    -0.81200
H783        H  0.09848022  0.74931757  0.19262066     0.17900
C784        C  0.13234614  0.83053932  0.29047885    -0.26100
C785        C  0.14740780  0.85314122  0.30599689     0.35900
C786        C  0.13899849  0.88001361  0.29465028    -0.20100
C787        C  0.11596784  0.88331180  0.26671064    -0.25400
C788        C  0.10072080  0.86057524  0.25139290     0.27300
H789        H  0.13881786  0.81012481  0.29992953     0.13100
N790        N  0.17150444  0.84807152  0.33228550    -0.82600
H791        H  0.10929221  0.90377355  0.25795445     0.17900
N792        N  0.07698306  0.86441811  0.22339423    -0.81200
H793        H  0.16864040  0.85623641  0.36416446     0.33500
H794        H  0.18821191  0.85783249  0.31709652     0.38000
H795        H  0.07368334  0.88524945  0.21746259     0.33500
H796        H  0.08127466  0.85539737  0.19250470     0.30200
H797        H  0.13906437  0.77295032  0.19300244     0.33500
H798        H  0.13498373  0.80699716  0.18979738     0.30200
H799        H  0.00838587  0.78391009  0.23418224     0.38100
H800        H  0.01491868  0.79949442  0.28290299     0.33600
C801        C  0.10432910  0.93943654  0.43904025    -0.20200
C802        C  0.08863905  0.91531340  0.43420483     0.36000
C803        C  0.07009754  0.90789758  0.46802003    -0.26200
C804        C  0.06646089  0.92440931  0.50609230     0.02500
C805        C  0.08041425  0.94980632  0.50873998     0.27300
C806        C  0.09969294  0.95677878  0.47559949    -0.25300
N807        N  0.09329288  0.89731890  0.39687390    -0.82700
H808        H  0.05989131  0.88818829  0.46600982     0.13100
C809        C  0.05227387  0.91235245  0.54555215     0.02400
N810        N  0.07565770  0.96788579  0.54586591    -0.81200
H811        H  0.11171427  0.97540463  0.47886877     0.17900
C812        C  0.06661901  0.91146021  0.58624235    -0.26100
C813        C  0.05816855  0.89409337  0.62079915     0.35900
C814        C  0.03505066  0.87703044  0.61434896    -0.20100
C815        C  0.01928012  0.87953448  0.57538746    -0.25400
C816        C  0.02734272  0.89754370  0.54123337     0.27300
H817        H  0.08589683  0.92247280  0.58976906     0.13100
N818        N  0.07433936  0.89206570  0.66085257    -0.82600
H819        H  0.00132721  0.86657624  0.57087781     0.17900
N820        N  0.01105219  0.89998147  0.50141145    -0.81200
H821        H  0.09012753  0.90666722  0.66097792     0.33500
H822        H  0.08403223  0.87296550  0.66046185     0.38000
H823        H  0.99345965  0.88764292  0.50341683     0.33500
H824        H  0.00415974  0.92023343  0.49962587     0.30200
H825        H  0.08767126  0.98558789  0.54297602     0.33500
H826        H  0.05505930  0.97412148  0.54442696     0.30200
H827        H  0.08685789  0.90753656  0.36813769     0.38100
H828        H  0.08098657  0.87978968  0.39932979     0.33600
C829        C  0.25487702  0.98030208  0.98694565    -0.20200
C830        C  0.22621815  0.98337874  0.99443082     0.36000
C831        C  0.21624405  0.98499106  0.03846644    -0.26200
C832        C  0.23423995  0.98409838  0.07510397     0.02500
C833        C  0.26293224  0.98234705  0.06746571     0.27300
C834        C  0.27286268  0.98019392  0.02361991    -0.25300
N835        N  0.20718788  0.98328602  0.95766037    -0.82700
H836        H  0.19422203  0.98604481  0.04429695     0.13100
C837        C  0.22279254  0.98279501  0.12118744     0.02400
N838        N  0.28186302  0.98236725  0.10437566    -0.81200
H839        H  0.29483710  0.97816129  0.01804620     0.17900
C840        C  0.23073800  0.96100498  0.14872956    -0.26100
C841        C  0.22108876  0.95891161  0.19264675     0.35900
C842        C  0.20255612  0.97870415  0.20929848    -0.20100
C843        C  0.19370416  0.00001115  0.18149533    -0.25400
C844        C  0.20398397  0.00250825  0.13768583     0.27300
H845        H  0.24460896  0.94549819  0.13583165     0.13100
N846        N  0.22998437  0.93668249  0.22052214    -0.82600
H847        H  0.17963177  0.01528062  0.19457553     0.17900
N848        N  0.19593423  0.02525385  0.11033311    -0.81200
H849        H  0.24384474  0.92403186  0.20347495     0.33500
H850        H  0.21268507  0.92469383  0.22774995     0.38000
H851        H  0.18207443  0.03788880  0.12741480     0.33500
H852        H  0.21356163  0.03702437  0.10432292     0.30200
H853        H  0.30220246  0.98065893  0.09314128     0.33500
H854        H  0.28026976  0.00138425  0.12028801     0.30200
H855        H  0.21003335  0.00155958  0.94020494     0.38100
H856        H  0.18683858  0.98364669  0.96917549     0.33600
C857        C  0.22313322  0.98085962  0.48785308    -0.20200
C858        C  0.24543428  0.99923163  0.49332016     0.36000
C859        C  0.25700470  0.00307279  0.53607470    -0.26200
C860        C  0.24652483  0.98904390  0.57317839     0.02500
C861        C  0.22368624  0.97144530  0.56785250     0.27300
C862        C  0.21238317  0.96738849  0.52524931    -0.25300
N863        N  0.25680564  0.01314639  0.45537535    -0.82700
H864        H  0.27449379  0.01665142  0.54043195     0.13100
C865        C  0.25987567  0.99188384  0.61752962     0.02400
N866        N  0.21235364  0.95742558  0.60575914    -0.81200
H867        H  0.19524466  0.95334435  0.52104823     0.17900
C868        C  0.24530508  0.00461801  0.65207051    -0.26100
C869        C  0.25483799  0.00379283  0.69630169     0.35900
C870        C  0.28007761  0.99034016  0.70623624    -0.20100
C871        C  0.29520022  0.97858124  0.67097928    -0.25400
C872        C  0.28526000  0.97907301  0.62681761     0.27300
H873        H  0.22567489  0.01418258  0.64467493     0.13100
N874        N  0.23829532  0.01568118  0.73113193    -0.82600
H875        H  0.31453362  0.96836619  0.67799012     0.17900
N876        N  0.30042210  0.96593930  0.59155711    -0.81200
H877        H  0.23057999  0.99959898  0.75039211     0.33500
H878        H  0.22111504  0.02568776  0.71785848     0.38000
H879        H  0.31872598  0.95753240  0.60381281     0.33500
H880        H  0.28852929  0.94954868  0.57984129     0.30200
H881        H  0.19542350  0.94546082  0.59633060     0.33500
H882        H  0.22737272  0.94392846  0.61758941     0.30200
H883        H  0.26535762  0.99831966  0.43428600     0.38100
H884        H  0.27298791  0.02600170  0.46515756     0.33600
C885        C  0.37656884  0.83753309  0.25272883    -0.20200
C886        C  0.35512363  0.84841926  0.22606276     0.36000
C887        C  0.33387715  0.86355406  0.24592082    -0.26200
C888        C  0.33311068  0.86778869  0.29205282     0.02500
C889        C  0.35364211  0.85600537  0.31918707     0.27300
C890        C  0.37531150  0.84116285  0.29922635    -0.25300
N891        N  0.35504601  0.84481797  0.17862065    -0.82700
H892        H  0.31781110  0.87213560  0.22507949     0.13100
C893        C  0.31015858  0.88415047  0.31103445     0.02400
N894        N  0.35255698  0.85945037  0.36674995    -0.81200
H895        H  0.39143870  0.83269217  0.32002059     0.17900
C896        C  0.29025928  0.87110108  0.33720975    -0.26100
C897        C  0.26648560  0.88504704  0.35155412     0.35900
C898        C  0.26265384  0.91287780  0.33966706    -0.20100
C899        C  0.28334912  0.92620756  0.31506098    -0.25400
C900        C  0.30702753  0.91210371  0.30056917     0.27300
H901        H  0.29287876  0.84963541  0.34525080     0.13100
N902        N  0.24655253  0.87104781  0.37866682    -0.82600
H903        H  0.28072245  0.94753091  0.30612134     0.17900
N904        N  0.32780000  0.92590260  0.27484094    -0.81200
H905        H  0.25403301  0.85188428  0.38833806     0.33500
H906        H  0.22940099  0.86703668  0.35864722     0.38000
H907        H  0.32238455  0.94638485  0.26981294     0.33500
H908        H  0.34595534  0.92603171  0.29366670     0.30200
H909        H  0.36904432  0.84932995  0.38194179     0.33500
H910        H  0.35504998  0.88031119  0.37365070     0.30200
H911        H  0.33667649  0.83499546  0.16964296     0.38100
H912        H  0.35521967  0.86416444  0.16379702     0.33600
C913        C  0.43176490  0.33086835  0.40755904    -0.20200
C914        C  0.40669611  0.32121134  0.38982342     0.36000
C915        C  0.38357421  0.33869914  0.38923579    -0.26200
C916        C  0.38524320  0.36568403  0.40571836     0.02500
C917        C  0.40967871  0.37430633  0.42728712     0.27300
C918        C  0.43269070  0.35677638  0.42788641    -0.25300
N919        N  0.40547065  0.29457795  0.36938742    -0.82700
H920        H  0.36473762  0.33197069  0.37311813     0.13100
C921        C  0.36350074  0.38594545  0.39339924     0.02400
N922        N  0.41166212  0.40142433  0.44590507    -0.81200
H923        H  0.45208120  0.36411961  0.44141383     0.17900
C924        C  0.34971669  0.40123730  0.42639192    -0.26100
C925        C  0.33197488  0.42306836  0.41492507     0.35900
C926        C  0.32781282  0.42950869  0.36950390    -0.20100
C927        C  0.34066932  0.41338882  0.33672386    -0.25400
C928        C  0.35862993  0.39198126  0.34806745     0.27300
H929        H  0.35363739  0.39676163  0.46116904     0.13100
N930        N  0.31986102  0.43985840  0.44915539    -0.82600
H931        H  0.33772511  0.41842901  0.30188546     0.17900
N932        N  0.37306665  0.37724103  0.31364502    -0.81200
H933        H  0.32619812  0.43332004  0.48068760     0.33500
H934        H  0.29851955  0.43694939  0.44787349     0.38000
H935        H  0.36711698  0.38408100  0.28208964     0.33500
H936        H  0.39406271  0.38175379  0.31685914     0.30200
H937        H  0.43090716  0.40439822  0.46091103     0.33500
H938        H  0.41043949  0.41538825  0.41964502     0.30200
H939        H  0.40896470  0.28011574  0.39437414     0.38100
H940        H  0.38568991  0.29076748  0.35692942     0.33600
C941        C  0.43400232  0.15290334  0.89921633    -0.20200
C942        C  0.43153376  0.12825625  0.92373488     0.36000
C943        C  0.40708414  0.11294147  0.92106208    -0.26200
C944        C  0.38491356  0.12184666  0.89504125     0.02500
C945        C  0.38606587  0.14794138  0.87494906     0.27300
C946        C  0.41066799  0.16334021  0.87738356    -0.25300
N947        N  0.45430448  0.11829916  0.94979435    -0.82700
H948        H  0.40596300  0.09306780  0.93696463     0.13100
C949        C  0.36367817  0.10131167  0.88243231     0.02400
N950        N  0.36252362  0.15837422  0.85137697    -0.81200
H951        H  0.41220312  0.18254143  0.85956528     0.17900
C952        C  0.34428023  0.09192616  0.91363391    -0.26100
C953        C  0.32738556  0.06894844  0.90428554     0.35900
C954        C  0.33011890  0.05518487  0.86282261    -0.20100
C955        C  0.34891776  0.06553867  0.83133747    -0.25400
C956        C  0.36576093  0.08805351  0.84094510     0.27300
H957        H  0.34312876  0.10186760  0.94593015     0.13100
N958        N  0.30840578  0.05906518  0.93732677    -0.82600
H959        H  0.35141926  0.05547351  0.79933548     0.17900
N960        N  0.38611336  0.09657795  0.80923371    -0.81200
H961        H  0.30852182  0.07186488  0.96535351     0.33500
H962        H  0.31549812  0.03996863  0.94802649     0.38000
H963        H  0.39917590  0.07999248  0.80285605     0.33500
H964        H  0.37601424  0.10152687  0.77954494     0.30200
H965        H  0.36652608  0.17809640  0.83953851     0.33500
H966        H  0.35924663  0.14604451  0.82334472     0.30200
H967        H  0.45784091  0.13250961  0.97532423     0.38100
H968        H  0.44927729  0.09978336  0.96521994     0.33600
C969        C  0.49864050  0.28394259  0.24841733    -0.20200
C970        C  0.51843929  0.29163652  0.21594638     0.36000
C971        C  0.51636616  0.28104518  0.17242967    -0.26200
C972        C  0.49555924  0.26243722  0.16093654     0.02500
C973        C  0.47591830  0.25460960  0.19287976     0.27300
C974        C  0.47756789  0.26548363  0.23624017    -0.25300
N975        N  0.54100421  0.30949612  0.22729341    -0.82700
H976        H  0.53158623  0.28661798  0.14759828     0.13100
C977        C  0.49570204  0.25008973  0.11590619     0.02400
N978        N  0.45460476  0.23540118  0.18118086    -0.81200
H979        H  0.46239103  0.25928906  0.26070695     0.17900
C980        C  0.50660690  0.22373468  0.11038478    -0.26100
C981        C  0.50959441  0.21224714  0.06769373     0.35900
C982        C  0.50123215  0.22738652  0.03011382    -0.20100
C983        C  0.48920764  0.25326513  0.03575468    -0.25400
C984        C  0.48652489  0.26489153  0.07850934     0.27300
H985        H  0.51353025  0.21248740  0.13938929     0.13100
N986        N  0.52156182  0.18551467  0.06213653    -0.82600
H987        H  0.48311403  0.26488522  0.00666194     0.17900
N988        N  0.47529551  0.29191161  0.08413532    -0.81200
H989        H  0.52686114  0.17720222  0.09304762     0.33500
H990        H  0.50639629  0.17272847  0.04855502     0.38000
H991        H  0.46982886  0.30018009  0.05327135     0.33500
H992        H  0.45706814  0.29005601  0.10249191     0.30200
H993        H  0.44188984  0.23153745  0.20859133     0.33500
H994        H  0.44220174  0.24457665  0.15694998     0.30200
H995        H  0.55376914  0.29893547  0.24945752     0.38100
H996        H  0.55305174  0.31370713  0.19923003     0.33600
C997        C  0.50415480  0.20727727  0.75069021    -0.20200
C998        C  0.48695237  0.19521864  0.71808973     0.36000
C999        C  0.48819342  0.20476492  0.67384704    -0.26200
C1000       C  0.50701016  0.22527521  0.66133361     0.02500
C1001       C  0.52519247  0.23618373  0.69361244     0.27300
C1002       C  0.52314796  0.22750314  0.73797685    -0.25300
N1003       N  0.46756956  0.17423891  0.73021577    -0.82700
H1004       H  0.47418100  0.19644285  0.64912955     0.13100
C1005       C  0.50699924  0.23599221  0.61490667     0.02400
N1006       N  0.54576107  0.25597103  0.68113234    -0.81200
H1007       H  0.53681439  0.23631640  0.76280405     0.17900
C1008       C  0.50467354  0.26436388  0.60828759    -0.26100
C1009       C  0.50634197  0.27575310  0.56548711     0.35900
C1010       C  0.50983952  0.25836373  0.52828044    -0.20100
C1011       C  0.51089846  0.22989959  0.53451701    -0.25400
C1012       C  0.50989393  0.21852062  0.57754974     0.27300
H1013       H  0.50182507  0.27773585  0.63682867     0.13100
N1014       N  0.50450306  0.30491038  0.55963211    -0.82600
H1015       H  0.51379461  0.21660503  0.50588632     0.17900
N1016       N  0.51262405  0.18944523  0.58351065    -0.81200
H1017       H  0.50222546  0.31482825  0.59036683     0.33500
H1018       H  0.48661770  0.30891834  0.54132197     0.38000
H1019       H  0.51457111  0.17954294  0.55270519     0.33500
H1020       H  0.53099616  0.18597564  0.60083639     0.30200
H1021       H  0.55737225  0.26204789  0.70884367     0.33500
H1022       H  0.55940627  0.24631968  0.65914121     0.30200
H1023       H  0.47886341  0.15675598  0.73850082     0.38100
H1024       H  0.45540575  0.16876395  0.70280602     0.33600
C1025       C  0.81945354  0.92788739  0.71690692    -0.20200
C1026       C  0.83619732  0.92505307  0.67880265     0.36000
C1027       C  0.85367805  0.90213681  0.67484226    -0.26200
C1028       C  0.85452752  0.88198929  0.70818599     0.02500
C1029       C  0.83576760  0.88366132  0.74415268     0.27300
C1030       C  0.81870539  0.90682820  0.74850750    -0.25300
N1031       N  0.83703269  0.94656633  0.64623019    -0.82700
H1032       H  0.86811606  0.90103947  0.64734119     0.13100
C1033       C  0.87822217  0.86248759  0.70937031     0.02400
N1034       N  0.83513341  0.86240889  0.77717547    -0.81200
H1035       H  0.80572029  0.90909705  0.77768935     0.17900
C1036       C  0.89556667  0.86309771  0.74682556    -0.26100
C1037       C  0.92028661  0.84823392  0.74782367     0.35900
C1038       C  0.92814507  0.83250315  0.71043736    -0.20100
C1039       C  0.91032157  0.83065637  0.67366082    -0.25400
C1040       C  0.88533456  0.84557381  0.67275476     0.27300
H1041       H  0.89036277  0.87619932  0.77481867     0.13100
N1042       N  0.93798168  0.84965511  0.78626421    -0.82600
H1043       H  0.91644791  0.81855014  0.64499182     0.17900
N1044       N  0.86748644  0.84410871  0.63458361    -0.81200
H1045       H  0.92941948  0.86233041  0.81078390     0.33500
H1046       H  0.93900628  0.83000912  0.79993261     0.38000
H1047       H  0.87569830  0.83089298  0.61051371     0.33500
H1048       H  0.84885399  0.83545060  0.64500280     0.30200
H1049       H  0.82040897  0.86679576  0.80163230     0.33500
H1050       H  0.82871907  0.84439773  0.76129414     0.30200
H1051       H  0.81756093  0.94761206  0.63135947     0.38100
H1052       H  0.85099429  0.94176731  0.62083293     0.33600
C1053       C  0.70901329  0.06082757  0.75557940    -0.20200
C1054       C  0.68358924  0.04867688  0.76729882     0.36000
C1055       C  0.66166577  0.06551567  0.78122488    -0.26200
C1056       C  0.66485195  0.09403996  0.78360149     0.02500
C1057       C  0.69004333  0.10615631  0.77143875     0.27300
C1058       C  0.71184366  0.08944508  0.75739477    -0.25300
N1059       N  0.68004824  0.01948033  0.76459896    -0.82700
H1060       H  0.64213572  0.05643401  0.79070121     0.13100
C1061       C  0.64210435  0.11112565  0.80068796     0.02400
N1062       N  0.69337630  0.13539505  0.77382978    -0.81200
H1063       H  0.73134477  0.09880620  0.74849706     0.17900
C1064       C  0.64506010  0.12361923  0.84243053    -0.26100
C1065       C  0.62408109  0.13999826  0.86018242     0.35900
C1066       C  0.59938970  0.14389831  0.83582497    -0.20100
C1067       C  0.59690218  0.13188419  0.79326897    -0.25400
C1068       C  0.61809487  0.11558489  0.77541936     0.27300
H1069       H  0.66376328  0.12045199  0.86153680     0.13100
N1070       N  0.62801676  0.15240171  0.90308477    -0.82600
H1071       H  0.57816398  0.13469974  0.77417035     0.17900
N1072       N  0.61535511  0.10345850  0.73190318    -0.81200
H1073       H  0.64564498  0.16471713  0.90164247     0.33500
H1074       H  0.63161828  0.13684021  0.92622715     0.38000
H1075       H  0.59636631  0.10863017  0.71773628     0.33500
H1076       H  0.63054901  0.11203675  0.71152274     0.30200
H1077       H  0.71328958  0.14105200  0.76416613     0.33500
H1078       H  0.67986215  0.14409226  0.75070542     0.30200
H1079       H  0.68177416  0.01385056  0.73104783     0.38100
H1080       H  0.66018072  0.01392343  0.77468427     0.33600
C1081       C  0.54194249  0.83182433  0.18127493    -0.20200
C1082       C  0.54485516  0.85386374  0.15114453     0.36000
C1083       C  0.56914842  0.86964893  0.15165067    -0.26200
C1084       C  0.59057193  0.86377819  0.18153901     0.02500
C1085       C  0.58885406  0.83995184  0.20803408     0.27300
C1086       C  0.56455118  0.82414894  0.20757310    -0.25300
N1087       N  0.52262790  0.86082850  0.12153833    -0.82700
H1088       H  0.57045790  0.88782456  0.13113450     0.13100
C1089       C  0.61114820  0.88556729  0.19193374     0.02400
N1090       N  0.61121287  0.83294278  0.23730494    -0.81200
H1091       H  0.56254862  0.80700676  0.23018760     0.17900
C1092       C  0.61140824  0.89596174  0.23545296    -0.26100
C1093       C  0.62710483  0.91891151  0.24687861     0.35900
C1094       C  0.64319919  0.93229634  0.21423249    -0.20100
C1095       C  0.64402550  0.92123734  0.17080681    -0.25400
C1096       C  0.62797438  0.89801250  0.15925944     0.27300
H1097       H  0.59833163  0.88683620  0.26068051     0.13100
N1098       N  0.62617027  0.92881009  0.29189505    -0.82600
H1099       H  0.65622267  0.93136450  0.14548246     0.17900
N1100       N  0.62822940  0.88739223  0.11452609    -0.81200
H1101       H  0.63256164  0.91303348  0.31296025     0.33500
H1102       H  0.60568132  0.93353493  0.29961675     0.38000
H1103       H  0.64154847  0.89887652  0.09452596     0.33500
H1104       H  0.63630660  0.86756041  0.11576468     0.30200
H1105       H  0.60661164  0.81514830  0.25511958     0.33500
H1106       H  0.62832793  0.82845345  0.21740651     0.30200
H1107       H  0.51974186  0.84428285  0.09978970     0.38100
H1108       H  0.52794360  0.87764009  0.10181729     0.33600
C1109       C  0.63574404  0.09899946  0.29556605    -0.20200
C1110       C  0.61142926  0.09729002  0.32178165     0.36000
C1111       C  0.59793671  0.12138881  0.33500774    -0.26200
C1112       C  0.60850807  0.14709042  0.32388741     0.02500
C1113       C  0.63362499  0.14904789  0.30057767     0.27300
C1114       C  0.64700351  0.12495095  0.28647055    -0.25300
N1115       N  0.60031152  0.07115145  0.33461149    -0.82700
H1116       H  0.57895717  0.12018411  0.35398611     0.13100
C1117       C  0.59300487  0.17174936  0.33758001     0.02400
N1118       N  0.64534250  0.17547330  0.29129148    -0.81200
H1119       H  0.66574017  0.12651971  0.26698947     0.17900
C1120       C  0.59794321  0.18308156  0.37968607    -0.26100
C1121       C  0.58288501  0.20583404  0.39492098     0.35900
C1122       C  0.56275517  0.21786323  0.36682170    -0.20100
C1123       C  0.55760423  0.20602393  0.32478124    -0.25400
C1124       C  0.57248251  0.18300899  0.30996080     0.27300
H1125       H  0.61336650  0.17381844  0.40099159     0.13100
N1126       N  0.58769899  0.21637128  0.43907885    -0.82600
H1127       H  0.54213399  0.21491519  0.30316505     0.17900
N1128       N  0.56658541  0.17074724  0.26734361    -0.81200
H1129       H  0.60340887  0.20543966  0.45492276     0.33500
H1130       H  0.56976856  0.21303990  0.45766172     0.38000
H1131       H  0.55060779  0.18123000  0.25139511     0.33500
H1132       H  0.58405580  0.17301178  0.24729540     0.30200
H1133       H  0.66410032  0.17336563  0.27445647     0.33500
H1134       H  0.63199192  0.18568862  0.26964803     0.30200
H1135       H  0.61462912  0.06190088  0.35583202     0.38100
H1136       H  0.58218399  0.07358533  0.35306870     0.33600
C1137       C  0.53827947  0.11114872  0.97969357    -0.20200
C1138       C  0.56169045  0.09437022  0.97529373     0.36000
C1139       C  0.56697673  0.07462166  0.00787183    -0.26200
C1140       C  0.54900992  0.07101741  0.04410407     0.02500
C1141       C  0.52415286  0.08604576  0.04584847     0.27300
C1142       C  0.51932076  0.10651503  0.01403670    -0.25300
N1143       N  0.58118999  0.09907693  0.93998199    -0.82700
H1144       H  0.58629427  0.06351433  0.00677575     0.13100
C1145       C  0.55981276  0.05663159  0.08387682     0.02400
N1146       N  0.50465073  0.08124159  0.08103559    -0.81200
H1147       H  0.50119360  0.11936727  0.01669598     0.17900
C1148       C  0.56183013  0.07169256  0.12368317    -0.26100
C1149       C  0.57944957  0.06331519  0.15793100     0.35900
C1150       C  0.59513697  0.03929820  0.15239637    -0.20100
C1151       C  0.59110237  0.02266836  0.11478595    -0.25400
C1152       C  0.57345356  0.03115253  0.08024419     0.27300
H1153       H  0.55164410  0.09136608  0.12649833     0.13100
N1154       N  0.58294125  0.08000590  0.19716121    -0.82600
H1155       H  0.60328129  0.00421658  0.11084434     0.17900
N1156       N  0.57063118  0.01497301  0.04037267    -0.81200
H1157       H  0.57021721  0.09726905  0.19583172     0.33500
H1158       H  0.57637831  0.06850098  0.22450737     0.38000
H1159       H  0.58236274  0.99707630  0.04266239     0.33500
H1160       H  0.55000157  0.00889714  0.03805964     0.30200
H1161       H  0.48758318  0.09415068  0.07767118     0.33500
H1162       H  0.49735079  0.06120414  0.07732169     0.30200
H1163       H  0.57156671  0.09393725  0.90990838     0.38100
H1164       H  0.59812391  0.08597451  0.94299210     0.33600
C1165       C  0.71359990  0.01145181  0.09055656    -0.20200
C1166       C  0.69932104  0.02009975  0.05198005     0.36000
C1167       C  0.71099621  0.01577404  0.00969831    -0.26200
C1168       C  0.73669733  0.00292098  0.00496410     0.02500
C1169       C  0.75082707  0.99383355  0.04316903     0.27300
C1170       C  0.73918533  0.99819493  0.08544879    -0.25300
N1171       N  0.67299609  0.03324089  0.05535661    -0.82700
H1172       H  0.70011232  0.02289502  0.98038504     0.13100
C1173       C  0.74911800  0.00009095  0.95997845     0.02400
N1174       N  0.77700188  0.98026880  0.03881277    -0.81200
H1175       H  0.75042094  0.99142416  0.11460373     0.17900
C1176       C  0.77443412  0.01281848  0.95129471    -0.26100
C1177       C  0.78638421  0.01199767  0.90865073     0.35900
C1178       C  0.77266812  0.99784596  0.87362192    -0.20100
C1179       C  0.74761946  0.98441041  0.88303435    -0.25400
C1180       C  0.73575665  0.98537748  0.92577999     0.27300
H1181       H  0.78458105  0.02413221  0.97778910     0.13100
N1182       N  0.81222436  0.02571046  0.90113334    -0.82600
H1183       H  0.73690371  0.97345641  0.85676426     0.17900
N1184       N  0.71016036  0.97154784  0.93463842    -0.81200
H1185       H  0.82065286  0.03263587  0.93123478     0.33500
H1186       H  0.80807346  0.04328818  0.88250930     0.38000
H1187       H  0.70289698  0.96172161  0.90591554     0.33500
H1188       H  0.71414573  0.95619553  0.95798219     0.30200
H1189       H  0.78483295  0.97502535  0.07011067     0.33500
H1190       H  0.77364714  0.96189681  0.02161562     0.30200
H1191       H  0.65869101  0.02164331  0.03725948     0.38100
H1192       H  0.67448537  0.05251159  0.04044071     0.33600
C1193       C  0.69334322  0.99420795  0.37239493    -0.20200
C1194       C  0.71900973  0.98161435  0.38237178     0.36000
C1195       C  0.72863432  0.98126306  0.42673034    -0.26200
C1196       C  0.71338723  0.99320237  0.46132368     0.02500
C1197       C  0.68734356  0.00457429  0.45202404     0.27300
C1198       C  0.67760168  0.00498026  0.40779318    -0.25300
N1199       N  0.73577530  0.97008437  0.34752275    -0.82700
H1200       H  0.74869793  0.97264926  0.43415630     0.13100
C1201       C  0.72623448  0.99663283  0.50600598     0.02400
N1202       N  0.67136548  0.01660130  0.48738085    -0.81200
H1203       H  0.65782503  0.01435339  0.40087743     0.17900
C1204       C  0.74142464  0.02048177  0.51453626    -0.26100
C1205       C  0.75301267  0.02566050  0.55674926     0.35900
C1206       C  0.74930554  0.00643740  0.59159557    -0.20100
C1207       C  0.73453348  0.98217017  0.58247465    -0.25400
C1208       C  0.72315394  0.97699716  0.53993416     0.27300
H1209       H  0.74386085  0.03538752  0.48813186     0.13100
N1210       N  0.76800010  0.05067599  0.56436508    -0.82600
H1211       H  0.73192823  0.96711671  0.60858506     0.17900
N1212       N  0.70883747  0.95178970  0.53088451    -0.81200
H1213       H  0.76954562  0.06204753  0.53500166     0.33500
H1214       H  0.75651126  0.06254688  0.58670628     0.38000
H1215       H  0.70878494  0.93929532  0.55911700     0.33500
H1216       H  0.68825305  0.95653104  0.52412021     0.30200
H1217       H  0.65288014  0.02453282  0.47497596     0.33500
H1218       H  0.66596817  0.00095570  0.50941346     0.30200
H1219       H  0.74300263  0.98629481  0.32806273     0.38100
H1220       H  0.75324187  0.96059403  0.36083162     0.33600
C1221       C  0.04482680  0.32957897  0.89351394    -0.20200
C1222       C  0.04893807  0.35151990  0.92364558     0.36000
C1223       C  0.07151804  0.36925061  0.91787865    -0.26200
C1224       C  0.09044481  0.36513002  0.88323283     0.02500
C1225       C  0.08838031  0.34126165  0.85670957     0.27300
C1226       C  0.06550936  0.32360396  0.86213787    -0.25300
N1227       N  0.02935030  0.35640714  0.95871247    -0.82700
H1228       H  0.07343356  0.38732615  0.93874182     0.13100
C1229       C  0.10871131  0.38834635  0.87051288     0.02400
N1230       N  0.10889384  0.33565676  0.82333415    -0.81200
H1231       H  0.06268113  0.30653549  0.83940129     0.17900
C1232       C  0.13463182  0.39195058  0.89060330    -0.26100
C1233       C  0.15054648  0.41575303  0.88253115     0.35900
C1234       C  0.14028226  0.43621095  0.85362457    -0.20100
C1235       C  0.11457042  0.43203287  0.83293934    -0.25400
C1236       C  0.09875200  0.40846605  0.84106995     0.27300
H1237       H  0.14200925  0.37660653  0.91370521     0.13100
N1238       N  0.17640260  0.41970410  0.90503766    -0.82600
H1239       H  0.10649067  0.44753743  0.81073228     0.17900
N1240       N  0.07200282  0.40535187  0.82090093    -0.81200
H1241       H  0.18101015  0.40278627  0.92495726     0.33500
H1242       H  0.17403971  0.43637546  0.92666779     0.38000
H1243       H  0.06730754  0.42229750  0.80109690     0.33500
H1244       H  0.07282554  0.38845526  0.79945153     0.30200
H1245       H  0.10455305  0.31717924  0.80704030     0.33500
H1246       H  0.10777441  0.35101353  0.79923903     0.30200
H1247       H  0.02985673  0.33948729  0.97996107     0.38100
H1248       H  0.03519635  0.37340156  0.97783240     0.33600
C1249       C  0.90811937  0.21529313  0.86329849    -0.20200
C1250       C  0.91582520  0.18904874  0.87876967     0.36000
C1251       C  0.90066312  0.16582778  0.86509254    -0.26200
C1252       C  0.87802988  0.16805365  0.83600407     0.02500
C1253       C  0.87016573  0.19429780  0.82095038     0.27300
C1254       C  0.88500664  0.21757292  0.83520849    -0.25300
N1255       N  0.93876878  0.18602326  0.90872826    -0.82700
H1256       H  0.90652898  0.14578727  0.87722862     0.13100
C1257       C  0.86344018  0.14270201  0.82030912     0.02400
N1258       N  0.84755158  0.19717465  0.79032695    -0.81200
H1259       H  0.87891909  0.23759508  0.82325831     0.17900
C1260       C  0.83465643  0.14026247  0.82508061    -0.26100
C1261       C  0.82028686  0.11723217  0.80887108     0.35900
C1262       C  0.83491842  0.09559147  0.78801339    -0.20100
C1263       C  0.86378818  0.09781302  0.78442311    -0.25400
C1264       C  0.87809009  0.12112602  0.79967835     0.27300
H1265       H  0.82320041  0.15649758  0.84138423     0.13100
N1266       N  0.79101224  0.11623788  0.81495547    -0.82600
H1267       H  0.87529967  0.08155075  0.76828369     0.17900
N1268       N  0.90741495  0.12321134  0.79333837    -0.81200
H1269       H  0.78153597  0.11576559  0.78368034     0.33500
H1270       H  0.78606339  0.09829411  0.83212119     0.38000
H1271       H  0.91511911  0.10560725  0.77782356     0.33500
H1272       H  0.91103906  0.13947286  0.77150034     0.30200
H1273       H  0.84433784  0.21778178  0.78255820     0.33500
H1274       H  0.85311627  0.18738589  0.76059652     0.30200
H1275       H  0.93360096  0.19582150  0.93864000     0.38100
H1276       H  0.94195349  0.16539448  0.91639204     0.33600
C1277       C  0.14547858  0.04675865  0.34871712    -0.20200
C1278       C  0.15230640  0.06573690  0.38258957     0.36000
C1279       C  0.13507698  0.08870596  0.38986532    -0.26200
C1280       C  0.11163546  0.09318072  0.36325263     0.02500
C1281       C  0.10597943  0.07512362  0.32762033     0.27300
C1282       C  0.12290844  0.05216165  0.32079915    -0.25300
N1283       N  0.17549518  0.06067650  0.41120694    -0.82700
H1284       H  0.13926265  0.10253460  0.41737804     0.13100
C1285       C  0.09080926  0.11419774  0.37603853     0.02400
N1286       N  0.08229191  0.07953855  0.29968897    -0.81200
H1287       H  0.11771939  0.03762124  0.29470724     0.17900
C1288       C  0.08825356  0.13843515  0.35125831    -0.26100
C1289       C  0.06506635  0.15572071  0.35637482     0.35900
C1290       C  0.04380417  0.14815680  0.38618202    -0.20100
C1291       C  0.04759402  0.12499850  0.41325115    -0.25400
C1292       C  0.07073907  0.10794033  0.40840647     0.27300
H1293       H  0.10371013  0.14313151  0.32635061     0.13100
N1294       N  0.06216600  0.17970041  0.32915437    -0.82600
H1295       H  0.03152350  0.11923947  0.43652183     0.17900
N1296       N  0.07320887  0.08344051  0.43459147    -0.81200
H1297       H  0.07905551  0.18169356  0.30774271     0.33500
H1298       H  0.06268630  0.19671862  0.35040135     0.38000
H1299       H  0.05687248  0.08191773  0.45719825     0.33500
H1300       H  0.07144849  0.06666834  0.41299994     0.30200
H1301       H  0.08120802  0.06460598  0.27467177     0.33500
H1302       H  0.06467959  0.07707239  0.31937736     0.30200
H1303       H  0.19328742  0.06180491  0.39161897     0.38100
H1304       H  0.17721110  0.07614996  0.43524359     0.33600
C1305       C  0.87592461  0.13681284  0.33113552    -0.20200
C1306       C  0.84925138  0.14052669  0.34940605     0.36000
C1307       C  0.82686024  0.12567799  0.33179920    -0.26200
C1308       C  0.83039372  0.10729560  0.29629328     0.02500
C1309       C  0.85672646  0.10402018  0.27717932     0.27300
C1310       C  0.87917391  0.11899043  0.29449734    -0.25300
N1311       N  0.84493756  0.15922729  0.38587909    -0.82700
H1312       H  0.80649247  0.12823781  0.34607480     0.13100
C1313       C  0.80638518  0.09093714  0.28071586     0.02400
N1314       N  0.86066706  0.08497833  0.24107530    -0.81200
H1315       H  0.89949632  0.11589475  0.28036724     0.17900
C1316       C  0.79454859  0.09644562  0.23911166    -0.26100
C1317       C  0.77101932  0.08211554  0.22428332     0.35900
C1318       C  0.75912172  0.06164702  0.25177600    -0.20100
C1319       C  0.77152161  0.05587589  0.29307123    -0.25400
C1320       C  0.79488398  0.07040257  0.30787012     0.27300
H1321       H  0.80354270  0.11225195  0.21840352     0.13100
N1322       N  0.75925991  0.08837036  0.18149531    -0.82600
H1323       H  0.76260520  0.04036296  0.31442420     0.17900
N1324       N  0.80686716  0.06462888  0.35065330    -0.81200
H1325       H  0.77006108  0.10431567  0.16616959     0.33500
H1326       H  0.76174826  0.07111784  0.16114566     0.38000
H1327       H  0.79584256  0.04916611  0.36682259     0.33500
H1328       H  0.82672916  0.05701757  0.34516899     0.30200
H1329       H  0.88126966  0.08492765  0.23079500     0.33500
H1330       H  0.85651401  0.06535317  0.25322725     0.30200
H1331       H  0.84919832  0.17895093  0.37427419     0.38100
H1332       H  0.82426090  0.15920508  0.39574938     0.33600
C1333       C  0.93691877  0.10925666  0.48477390    -0.20200
C1334       C  0.93327317  0.08142051  0.47277869     0.36000
C1335       C  0.92314612  0.06287885  0.50467058    -0.26200
C1336       C  0.91669068  0.07154019  0.54806965     0.02500
C1337       C  0.92242695  0.09872952  0.56105058     0.27300
C1338       C  0.93296151  0.11707559  0.52956264    -0.25300
N1339       N  0.93864031  0.07225171  0.42804472    -0.82700
H1340       H  0.91902991  0.04183526  0.49515374     0.13100
C1341       C  0.90061707  0.05335371  0.57781961     0.02400
N1342       N  0.91601094  0.10806910  0.60541704    -0.81200
H1343       H  0.93634111  0.13814856  0.53961751     0.17900
C1344       C  0.91043928  0.04765431  0.62089278    -0.26100
C1345       C  0.89300219  0.03608336  0.65320938     0.35900
C1346       C  0.86569641  0.02950007  0.64153917    -0.20100
C1347       C  0.85669436  0.03288335  0.59755394    -0.25400
C1348       C  0.87371375  0.04514647  0.56562634     0.27300
H1349       H  0.93107577  0.05405542  0.63010419     0.13100
N1350       N  0.90198636  0.03339823  0.69864358    -0.82600
H1351       H  0.83542199  0.02825107  0.58923021     0.17900
N1352       N  0.86306282  0.05117059  0.52197845    -0.81200
H1353       H  0.92235663  0.04011153  0.70208636     0.33500
H1354       H  0.90188719  0.01253313  0.70634477     0.38000
H1355       H  0.84296589  0.04367395  0.51845736     0.33500
H1356       H  0.86178638  0.07247120  0.51907079     0.30200
H1357       H  0.92171005  0.12857841  0.60966438     0.33500
H1358       H  0.89459054  0.10728177  0.60922074     0.30200
H1359       H  0.95984930  0.07413869  0.42256754     0.38100
H1360       H  0.93397311  0.05143794  0.42457392     0.33600
C1361       C  0.96735332  0.24882591  0.01984036    -0.20200
C1362       C  0.99344633  0.24076976  0.03676802     0.36000
C1363       C  0.99515700  0.22837681  0.07923944    -0.26200
C1364       C  0.97149431  0.22403604  0.10519534     0.02500
C1365       C  0.94551778  0.23112188  0.08786136     0.27300
C1366       C  0.94371516  0.24339789  0.04572308    -0.25300
N1367       N  0.01810383  0.24522427  0.01123031    -0.82700
H1368       H  0.01511168  0.22300243  0.09289307     0.13100
C1369       C  0.97398789  0.21543562  0.15255950     0.02400
N1370       N  0.92103718  0.22624760  0.11372080    -0.81200
H1371       H  0.92352235  0.24898172  0.03331369     0.17900
C1372       C  0.96811081  0.23488371  0.18547876    -0.26100
C1373       C  0.96797105  0.22799484  0.23070919     0.35900
C1374       C  0.97419596  0.20083100  0.24420766    -0.20100
C1375       C  0.98046401  0.18131751  0.21097300    -0.25400
C1376       C  0.98030740  0.18835402  0.16523227     0.27300
H1377       H  0.96302610  0.25566426  0.17584972     0.13100
N1378       N  0.96078000  0.24875568  0.26255008    -0.82600
H1379       H  0.98517532  0.16047746  0.22058739     0.17900
N1380       N  0.98609019  0.16809035  0.13167868    -0.81200
H1381       H  0.97468905  0.26500319  0.25925558     0.33500
H1382       H  0.94107117  0.25601044  0.25481981     0.38000
H1383       H  0.99037292  0.14919502  0.14643705     0.33500
H1384       H  0.96817038  0.16539101  0.11276552     0.30200
H1385       H  0.90350166  0.23282367  0.09654541     0.33500
H1386       H  0.91904110  0.20506196  0.11761749     0.30200
H1387       H  0.02148664  0.26635878  0.00999670     0.38100
H1388       H  0.03520211  0.23686613  0.02747866     0.33600
C1389       C  0.97208921  0.22829008  0.52154444    -0.20200
C1390       C  0.95203728  0.24399941  0.54465849     0.36000
C1391       C  0.95812243  0.25458157  0.58710834    -0.26200
C1392       C  0.98386962  0.25045163  0.60714251     0.02500
C1393       C  0.00416795  0.23530695  0.58398151     0.27300
C1394       C  0.99809772  0.22444909  0.54138966    -0.25300
N1395       N  0.92549793  0.24929868  0.52507276    -0.82700
H1396       H  0.94242204  0.26587743  0.60512181     0.13100
C1397       C  0.98804692  0.26066697  0.65359187     0.02400
N1398       N  0.03074507  0.23088350  0.60389795    -0.81200
H1399       H  0.01358376  0.21253473  0.52398384     0.17900
C1400       C  0.99421847  0.24189763  0.68734350    -0.26100
C1401       C  0.99345140  0.24963278  0.73242086     0.35900
C1402       C  0.98604713  0.27672198  0.74455502    -0.20100
C1403       C  0.98170887  0.29598477  0.71057211    -0.25400
C1404       C  0.98272605  0.28824903  0.66525234     0.27300
H1405       H  0.99845683  0.22072217  0.67883639     0.13100
N1406       N  0.99986282  0.22967010  0.76574738    -0.82600
H1407       H  0.97643045  0.31687861  0.71932359     0.17900
N1408       N  0.97768956  0.30810951  0.63095479    -0.81200
H1409       H  0.01982182  0.22244658  0.75978888     0.33500
H1410       H  0.98619396  0.21323517  0.76210650     0.38000
H1411       H  0.97392786  0.32739581  0.64493001     0.33500
H1412       H  0.99575224  0.30988135  0.61215217     0.30200
H1413       H  0.04326494  0.21922768  0.58273484     0.33500
H1414       H  0.04027963  0.24998316  0.60739238     0.30200
H1415       H  0.92867379  0.26168436  0.49717229     0.38100
H1416       H  0.91301508  0.26052494  0.54689521     0.33600
C1417       C  0.93438839  0.64434400  0.18761042    -0.20200
C1418       C  0.90837390  0.65532318  0.19818598     0.36000
C1419       C  0.88525062  0.63787214  0.19878621    -0.26200
C1420       C  0.88789741  0.60992185  0.18845033     0.02500
C1421       C  0.91356861  0.59953765  0.17427462     0.27300
C1422       C  0.93660397  0.61691032  0.17407708    -0.25300
N1423       N  0.90596614  0.68350825  0.21152778    -0.82700
H1424       H  0.86544162  0.64566804  0.20966318     0.13100
C1425       C  0.86521463  0.59080202  0.19931477     0.02400
N1426       N  0.91644022  0.57106224  0.16265758    -0.81200
H1427       H  0.95672422  0.60863134  0.16591215     0.17900
C1428       C  0.85207961  0.57607277  0.16515977    -0.26100
C1429       C  0.83399120  0.55437356  0.17505840     0.35900
C1430       C  0.82935980  0.54722937  0.22003689    -0.20100
C1431       C  0.84144544  0.56295629  0.25409423    -0.25400
C1432       C  0.85940053  0.58462867  0.24421287     0.27300
H1433       H  0.85689079  0.58080833  0.13076445     0.13100
N1434       N  0.82199340  0.53838465  0.13968647    -0.82600
H1435       H  0.83786956  0.55745785  0.28859261     0.17900
N1436       N  0.87284910  0.59951725  0.27954581    -0.81200
H1437       H  0.82887724  0.54529194  0.10867711     0.33500
H1438       H  0.80070705  0.54172060  0.14032633     0.38000
H1439       H  0.86619128  0.59254401  0.31065740     0.33500
H1440       H  0.89395323  0.59527736  0.27770811     0.30200
H1441       H  0.93664249  0.56680962  0.15261844     0.33500
H1442       H  0.91289080  0.55954875  0.19141632     0.30200
H1443       H  0.91106514  0.69552557  0.18394785     0.38100
H1444       H  0.88551296  0.68815006  0.21953857     0.33600
C1445       C  0.59984461  0.34207812  0.33583351    -0.20200
C1446       C  0.62624531  0.33721565  0.35415933     0.36000
C1447       C  0.64904653  0.35202677  0.33807767    -0.26200
C1448       C  0.64589861  0.37195789  0.30489640     0.02500
C1449       C  0.61959879  0.37683251  0.28660044     0.27300
C1450       C  0.59691548  0.36167911  0.30195567    -0.25300
N1451       N  0.62969342  0.31811090  0.39009277    -0.82700
H1452       H  0.66933407  0.34839571  0.35200083     0.13100
C1453       C  0.67029889  0.38766763  0.28959041     0.02400
N1454       N  0.61596248  0.39761137  0.25326094    -0.81200
H1455       H  0.57666681  0.36566703  0.28813416     0.17900
C1456       C  0.67831347  0.38581212  0.24479587    -0.26100
C1457       C  0.70137903  0.40017058  0.22877661     0.35900
C1458       C  0.71664357  0.41701274  0.25830892    -0.20100
C1459       C  0.70836325  0.41902084  0.30315280    -0.25400
C1460       C  0.68536055  0.40452729  0.31909693     0.27300
H1461       H  0.66659451  0.37285060  0.22230405     0.13100
N1462       N  0.70872643  0.39827140  0.18243403    -0.82600
H1463       H  0.71999495  0.43185684  0.32596702     0.17900
N1464       N  0.67706887  0.40704174  0.36495902    -0.81200
H1465       H  0.69381363  0.38722535  0.16471377     0.33500
H1466       H  0.72683190  0.38674658  0.18032267     0.38000
H1467       H  0.69042330  0.42011709  0.38229729     0.33500
H1468       H  0.65764823  0.41631902  0.36550948     0.30200
H1469       H  0.59534660  0.39861181  0.24318667     0.33500
H1470       H  0.62061401  0.41649798  0.26802402     0.30200
H1471       H  0.61918058  0.32595240  0.41776937     0.38100
H1472       H  0.65043777  0.31678366  0.39934181     0.33600
C1473       C  0.83800147  0.37973969  0.28866810    -0.20200
C1474       C  0.85545819  0.37980508  0.32620637     0.36000
C1475       C  0.86857629  0.35556769  0.33919280    -0.26200
C1476       C  0.86477171  0.33122536  0.31507233     0.02500
C1477       C  0.84721187  0.33093339  0.27763112     0.27300
C1478       C  0.83366103  0.35517177  0.26511946    -0.25300
N1479       N  0.85972759  0.40439459  0.35146500    -0.82700
H1480       H  0.88190394  0.35574892  0.36820998     0.13100
C1481       C  0.87932283  0.30624568  0.32981665     0.02400
N1482       N  0.84380823  0.30624272  0.25194653    -0.81200
H1483       H  0.82063323  0.35516551  0.23575812     0.17900
C1484       C  0.86406291  0.28444185  0.34731085    -0.26100
C1485       C  0.87725633  0.26118979  0.36471743     0.35900
C1486       C  0.90647126  0.25967964  0.36403821    -0.20100
C1487       C  0.92157091  0.28154152  0.34584647    -0.25400
C1488       C  0.90828966  0.30469221  0.32846066     0.27300
H1489       H  0.84177200  0.28592873  0.34837498     0.13100
N1490       N  0.86105473  0.23949102  0.38373580    -0.82600
H1491       H  0.94386782  0.28044383  0.34458961     0.17900
N1492       N  0.92404541  0.32663320  0.30923914    -0.81200
H1493       H  0.83998363  0.24361010  0.38056335     0.33500
H1494       H  0.86523941  0.23905821  0.41791952     0.38000
H1495       H  0.94514487  0.32235817  0.31087203     0.33500
H1496       H  0.91897779  0.32760868  0.27539302     0.30200
H1497       H  0.83028532  0.30951141  0.22533928     0.33500
H1498       H  0.86295219  0.30140928  0.23793311     0.30200
H1499       H  0.88084282  0.40874151  0.35148942     0.38100
H1500       H  0.85372886  0.40064337  0.38436040     0.33600
C1501       C  0.87611679  0.44723688  0.14937535    -0.20200
C1502       C  0.87330978  0.45876241  0.10665664     0.36000
C1503       C  0.88849409  0.44764249  0.07094159    -0.26200
C1504       C  0.90667480  0.42574914  0.07800654     0.02500
C1505       C  0.91217013  0.41692740  0.12186169     0.27300
C1506       C  0.89657145  0.42764319  0.15720035    -0.25300
N1507       N  0.85348392  0.48010246  0.09921107    -0.82700
H1508       H  0.88445056  0.45442672  0.03721454     0.13100
C1509       C  0.91390999  0.40770064  0.04015843     0.02400
N1510       N  0.93231091  0.39589084  0.12989535    -0.81200
H1511       H  0.89869792  0.41899950  0.19026092     0.17900
C1512       C  0.93637421  0.41334829  0.01214478    -0.26100
C1513       C  0.94460407  0.39421274  0.97924030     0.35900
C1514       C  0.93020419  0.36910241  0.97534741    -0.20100
C1515       C  0.90708172  0.36437121  0.00223975    -0.25400
C1516       C  0.89869300  0.38348068  0.03401199     0.27300
H1517       H  0.94780464  0.43222712  0.01672437     0.13100
N1518       N  0.96775006  0.39983664  0.95084656    -0.82600
H1519       H  0.89536093  0.34556470  0.99865668     0.17900
N1520       N  0.87490157  0.37801277  0.06090855    -0.81200
H1521       H  0.97601880  0.41914011  0.95814044     0.33500
H1522       H  0.98304491  0.38554770  0.95830131     0.38000
H1523       H  0.85800646  0.37530851  0.03968032     0.33500
H1524       H  0.87819070  0.35962326  0.07785691     0.30200
H1525       H  0.93433625  0.39232882  0.16408774     0.33500
H1526       H  0.92506505  0.37761851  0.11592873     0.30200
H1527       H  0.85995222  0.49721232  0.11773105     0.38100
H1528       H  0.85355754  0.48601045  0.06587761     0.33600
C1529       C  0.64600013  0.54973053  0.72907935    -0.20200
C1530       C  0.62694407  0.56002435  0.76090782     0.36000
C1531       C  0.60995522  0.58227038  0.74992668    -0.26200
C1532       C  0.61159962  0.59491414  0.70825452     0.02500
C1533       C  0.63196571  0.58624662  0.67765673     0.27300
C1534       C  0.64904386  0.56374836  0.68842961    -0.25300
N1535       N  0.62436622  0.54749582  0.80404593    -0.82700
H1536       H  0.59453291  0.58922748  0.77353531     0.13100
C1537       C  0.58984170  0.61518673  0.69665534     0.02400
N1538       N  0.63527698  0.60030852  0.63598054    -0.81200
H1539       H  0.66386780  0.55639926  0.66417662     0.17900
C1540       C  0.58874407  0.64053275  0.71893324    -0.26100
C1541       C  0.56536741  0.65771026  0.71558604     0.35900
C1542       C  0.54249538  0.64916508  0.68962232    -0.20100
C1543       C  0.54437891  0.62432570  0.66583122    -0.25400
C1544       C  0.56753947  0.60728318  0.66952782     0.27300
H1545       H  0.60567215  0.64631783  0.74060448     0.13100
N1546       N  0.56407747  0.68269764  0.74096557    -0.82600
H1547       H  0.52707173  0.61730175  0.64596739     0.17900
N1548       N  0.56754983  0.58103636  0.64800492    -0.81200
H1549       H  0.58189602  0.68515338  0.76021151     0.33500
H1550       H  0.56390973  0.69890984  0.71830535     0.38000
H1551       H  0.55056307  0.56995235  0.65962032     0.33500
H1552       H  0.56493300  0.58412105  0.61379510     0.30200
H1553       H  0.65167609  0.59192236  0.61789345     0.33500
H1554       H  0.61755787  0.59699583  0.61692620     0.30200
H1555       H  0.64296087  0.55061047  0.82097753     0.38100
H1556       H  0.60904382  0.55711594  0.82295527     0.33600
C1557       C  0.56882402  0.26630636  0.87550778    -0.20200
C1558       C  0.59570715  0.27223503  0.89068558     0.36000
C1559       C  0.60999106  0.29476967  0.87329348    -0.26200
C1560       C  0.59801695  0.31122794  0.84047372     0.02500
C1561       C  0.57130360  0.30522764  0.82465131     0.27300
C1562       C  0.55680701  0.28294218  0.84274664    -0.25300
N1563       N  0.60837261  0.25571316  0.92430210    -0.82700
H1564       H  0.63051521  0.29946598  0.88545343     0.13100
C1565       C  0.61347454  0.33509013  0.82367832     0.02400
N1566       N  0.55934489  0.32137117  0.78962366    -0.81200
H1567       H  0.53635807  0.27808622  0.83042584     0.17900
C1568       C  0.63104018  0.33195973  0.78691287    -0.26100
C1569       C  0.64512375  0.35459278  0.76894881     0.35900
C1570       C  0.64161215  0.38068376  0.78866918    -0.20100
C1571       C  0.62459309  0.38345988  0.82632206    -0.25400
C1572       C  0.61049663  0.36090876  0.84405508     0.27300
H1573       H  0.63321230  0.31192624  0.77164150     0.13100
N1574       N  0.66203993  0.35133716  0.72993840    -0.82600
H1575       H  0.62191887  0.40346091  0.84151669     0.17900
N1576       N  0.59320268  0.36406459  0.88267848    -0.81200
H1577       H  0.66259906  0.33079754  0.71997520     0.33500
H1578       H  0.65264361  0.36211044  0.70398645     0.38000
H1579       H  0.59364493  0.38431987  0.89410515     0.33500
H1580       H  0.57287576  0.36009913  0.87301880     0.30200
H1581       H  0.53986155  0.31380916  0.78104034     0.33500
H1582       H  0.55632005  0.34118704  0.80193516     0.30200
H1583       H  0.62676315  0.24787303  0.91131685     0.38100
H1584       H  0.61331113  0.26837573  0.95134390     0.33600
C1585       C  0.60344459  0.44905913  0.64470489    -0.20200
C1586       C  0.57559292  0.44476716  0.65608118     0.36000
C1587       C  0.55722876  0.43486912  0.62333740    -0.26200
C1588       C  0.56631440  0.42977656  0.57962922     0.02500
C1589       C  0.59345374  0.43690418  0.56735415     0.27300
C1590       C  0.61178278  0.44637777  0.60014737    -0.25300
N1591       N  0.56670431  0.44822072  0.70142920    -0.82700
H1592       H  0.53638207  0.42924603  0.63256557     0.13100
C1593       C  0.55020196  0.41134025  0.55021561     0.02400
N1594       N  0.60283006  0.43264207  0.52234733    -0.81200
H1595       H  0.63321706  0.44986062  0.59156585     0.17900
C1596       C  0.53959720  0.42092780  0.50954796    -0.26100
C1597       C  0.53089373  0.40241090  0.47616961     0.35900
C1598       C  0.53303675  0.37404772  0.48408414    -0.20100
C1599       C  0.54150262  0.36471820  0.52601384    -0.25400
C1600       C  0.55017088  0.38300875  0.55914612     0.27300
H1601       H  0.53983289  0.44271656  0.50284522     0.13100
N1602       N  0.52163833  0.41221111  0.43359808    -0.82600
H1603       H  0.54309476  0.34289035  0.53189134     0.17900
N1604       N  0.56068579  0.37282288  0.60077206    -0.81200
H1605       H  0.52122824  0.43362240  0.43335308     0.33500
H1606       H  0.53616169  0.40622658  0.40972507     0.38000
H1607       H  0.55884277  0.35149858  0.60222359     0.33500
H1608       H  0.58179238  0.37716610  0.60196381     0.30200
H1609       H  0.62323380  0.43922658  0.51877694     0.33500
H1610       H  0.60282532  0.41156031  0.51607915     0.30200
H1611       H  0.56863447  0.46900877  0.70934450     0.38100
H1612       H  0.54576763  0.44343722  0.70445937     0.33600
C1613       C  0.76506169  0.42086569  0.74839587    -0.20200
C1614       C  0.78581341  0.43203479  0.77655528     0.36000
C1615       C  0.80951753  0.41645336  0.78629214    -0.26200
C1616       C  0.81283488  0.38989825  0.76930781     0.02500
C1617       C  0.79267573  0.37888647  0.74070959     0.27300
C1618       C  0.76911410  0.39442541  0.73043650    -0.25300
N1619       N  0.78286832  0.45896744  0.79551329    -0.82700
H1620       H  0.82511035  0.42468580  0.80850835     0.13100
C1621       C  0.83625424  0.37288999  0.78491573     0.02400
N1622       N  0.79606176  0.35173087  0.72284672    -0.81200
H1623       H  0.75362275  0.38553808  0.70874520     0.17900
C1624       C  0.83138010  0.35344942  0.81815353    -0.26100
C1625       C  0.85291460  0.33748640  0.83557382     0.35900
C1626       C  0.88016781  0.34117555  0.81954262    -0.20100
C1627       C  0.88478411  0.36012814  0.78503581    -0.25400
C1628       C  0.86306385  0.37604923  0.76762651     0.27300
H1629       H  0.81062255  0.35097091  0.83092301     0.13100
N1630       N  0.84714511  0.31770164  0.86973632    -0.82600
H1631       H  0.90552318  0.36319057  0.77258678     0.17900
N1632       N  0.86814330  0.39571527  0.73305187    -0.81200
H1633       H  0.82623807  0.31792614  0.87824902     0.33500
H1634       H  0.85120632  0.29830053  0.85641309     0.38000
H1635       H  0.88899239  0.39571247  0.72417552     0.33500
H1636       H  0.85717092  0.38940302  0.70480874     0.30200
H1637       H  0.77930949  0.34645765  0.70261059     0.33500
H1638       H  0.81344715  0.35194470  0.70223033     0.30200
H1639       H  0.76729608  0.45794256  0.81955005     0.38100
H1640       H  0.80078115  0.46469887  0.81258906     0.33600
C1641       C  0.75828943  0.47085729  0.09483716    -0.20200
C1642       C  0.76960100  0.45725699  0.05702091     0.36000
C1643       C  0.75753181  0.46096191  0.01487356    -0.26200
C1644       C  0.73450662  0.47781992  0.00916379     0.02500
C1645       C  0.72328516  0.49158850  0.04629244     0.27300
C1646       C  0.73527650  0.48802526  0.08868256    -0.25300
N1647       N  0.79286149  0.43919266  0.06131109    -0.82700
H1648       H  0.76593547  0.45032323  0.98615983     0.13100
C1649       C  0.72199203  0.47999507  0.96407664     0.02400
N1650       N  0.69966086  0.50899885  0.04075931    -0.81200
H1651       H  0.72636339  0.49851956  0.11709758     0.17900
C1652       C  0.69612711  0.46816748  0.95613269    -0.26100
C1653       C  0.68463972  0.46741425  0.91300144     0.35900
C1654       C  0.69910956  0.47953260  0.87693019    -0.20100
C1655       C  0.72479478  0.49202706  0.88555616    -0.25400
C1656       C  0.73643397  0.49216610  0.92856440     0.27300
H1657       H  0.68527823  0.45860363  0.98356784     0.13100
N1658       N  0.65844065  0.45425687  0.90605504    -0.82600
H1659       H  0.73622575  0.50122449  0.85843099     0.17900
N1660       N  0.76302814  0.50433044  0.93632497    -0.81200
H1661       H  0.64965988  0.44858508  0.93649236     0.33500
H1662       H  0.66216252  0.43595905  0.88887315     0.38000
H1663       H  0.77110192  0.51224856  0.90673226     0.33500
H1664       H  0.76024063  0.52094041  0.95795727     0.30200
H1665       H  0.69377239  0.51753178  0.07132177     0.33500
H1666       H  0.70555009  0.52529998  0.02034244     0.28600
H1667       H  0.81004990  0.45128019  0.06857921     0.38100
H1668       H  0.79719133  0.42943897  0.03099356     0.33600
C1669       C  0.71791344  0.47540521  0.59231526    -0.20200
C1670       C  0.73992667  0.49370044  0.58313966     0.36000
C1671       C  0.74970639  0.49617368  0.53918429    -0.26200
C1672       C  0.73852899  0.48039349  0.50457663     0.02500
C1673       C  0.71615045  0.46287218  0.51304676     0.27300
C1674       C  0.70594383  0.46068908  0.55664806    -0.25300
N1675       N  0.75279080  0.50923910  0.61824775    -0.82700
H1676       H  0.76697830  0.50957910  0.53213545     0.13100
C1677       C  0.75194821  0.48068492  0.46037942     0.02400
N1678       N  0.70432489  0.44693677  0.47742136    -0.81200
H1679       H  0.68894382  0.44680249  0.56281509     0.17900
C1680       C  0.76809947  0.45822112  0.44779412    -0.26100
C1681       C  0.78159337  0.45750823  0.40639263     0.35900
C1682       C  0.77854009  0.47979889  0.37661657    -0.20100
C1683       C  0.76235511  0.50236949  0.38970755    -0.25400
C1684       C  0.74898684  0.50298621  0.43127666     0.27300
H1685       H  0.77022735  0.44117711  0.47059613     0.13100
N1686       N  0.79760534  0.43386559  0.39421319    -0.82600
H1687       H  0.75978353  0.51946581  0.36716994     0.17900
N1688       N  0.73210943  0.52593091  0.44385635    -0.81200
H1689       H  0.79585235  0.41857609  0.41837769     0.33500
H1690       H  0.81830926  0.43982570  0.39427873     0.38000
H1691       H  0.73210892  0.54071554  0.41872739     0.33500
H1692       H  0.71180883  0.51889621  0.44665943     0.30200
H1693       H  0.68813001  0.43480520  0.48922031     0.33500
H1694       H  0.69572739  0.46058307  0.45452323     0.30200
H1695       H  0.76397595  0.49548971  0.63783189     0.38100
H1696       H  0.76724699  0.52294323  0.60520299     0.33600
loop_ 
_geom_bond_atom_site_label_1 
_geom_bond_atom_site_label_2 
_geom_bond_distance 
_geom_bond_site_symmetry_2 
_ccdc_geom_bond_type 
O1          Cr19   2.021       .  S
O1            C9   1.273       .  A
O2          Cr19   1.985       .  S
O2            C3   1.262       .  A
C3            O4   1.266       .  A
C3         C1613   1.499       .  S
O4          Cr20   2.005       .  S
O5          Cr20   1.985       .  S
O5            C6   1.259       .  A
C6            O7   1.260       .  A
C6         C1570   1.477       .  S
O7          Cr21   1.990       .  S
O8          Cr21   1.979       .  S
O8            C9   1.264       .  A
C9         C1654   1.497       .  S
O10         Cr19   2.007       .  S
O10          C18   1.263       .  A
O11         Cr19   2.009       .  S
O11          C12   1.265       .  A
C12          O13   1.257       .  A
C12        C1669   1.492       .  S
O13         Cr20   1.965       .  S
O14         Cr20   2.000       .  S
O14          C15   1.268       .  A
C15          O16   1.265       .  A
C15        C1585   1.473       .  S
O16         Cr21   1.991       .  S
O17         Cr21   1.990       .  S
O17          C18   1.259       .  A
C18        C1529   1.495       .  S
Cr19         O22   1.775       .  S
Cr20         O22   1.771       .  S
Cr21         O22   1.773       .  S
O23         Cr41   1.974       .  S
O23          C31   1.260       .  A
O24         Cr41   2.015       .  S
O24          C25   1.270       .  A
C25          O26   1.261       .  A
C25        C1682   1.487       .  S
O26         Cr42   1.974       .  S
O27         Cr42   2.004       .  S
O27          C28   1.264       .  A
C28          O29   1.258       .  A
C28        C1473   1.476       .  S
O29         Cr43   1.973       .  S
O30         Cr43   2.010       .  S
O30          C31   1.267       .  A
C31        C1458   1.484       .  S
O32         Cr41   2.023       .  S
O32          C40   1.269       .  A
O33         Cr41   1.984       .  S
O33          C34   1.260       .  A
C34          O35   1.264       .  A
C34        C1430   1.477       .  S
O35         Cr42   2.002       .  S
O36         Cr42   1.987       .  S
O36          C37   1.262       .  A
C37          O38   1.267       .  A
C37        C1501   1.466       .  S
O38         Cr43   2.002       .  S
O39         Cr43   1.963       .  S
O39          C40   1.255       .  A
C40        C1641   1.496       .  S
Cr41         O44   1.769       .  S
Cr42         O44   1.769       .  S
Cr43         O44   1.762       .  S
O45         Cr63   1.956       .  S
O45          C53   1.256       .  A
O46         Cr63   2.026       .  S
O46          C47   1.274       .  A
C47          O48   1.261       .  A
C47        C1486   1.486       .  S
O48         Cr64   1.965       .  S
O49         Cr64   2.010       .  S
O49          C50   1.263       .  A
C50          O51   1.258       .  A
C50        C1305   1.490       .  S
O51         Cr65   1.981       .  S
O52         Cr65   2.034       .  S
O52          C53   1.273       .  A
C53        C1374   1.498       .  S
O54         Cr63   2.032   1_455  S
O54          C62   1.269       .  A
O55         Cr63   1.994       .  S
O55          C56   1.262       .  A
C56          O57   1.264       .  A
C56        C1389   1.493       .  S
O57         Cr64   2.004       .  S
O58         Cr64   1.957       .  S
O58          C59   1.260       .  A
C59          O60   1.274       .  A
C59        C1333   1.489       .  S
O60         Cr65   2.032       .  S
O61         Cr65   1.965       .  S
O61          C62   1.256   1_655  A
C62        C1290   1.491       .  S
Cr63         O66   1.771       .  S
Cr64         O66   1.765       .  S
Cr65         O66   1.769       .  S
O67         Cr85   2.032       .  S
O67          C75   1.273       .  A
O68         Cr85   1.960       .  S
O68          C69   1.257       .  A
C69          O70   1.272       .  A
C69        C1402   1.492       .  S
O70         Cr86   2.029       .  S
O71         Cr86   1.988       .  S
O71          C72   1.261       .  A
C72          O73   1.262       .  A
C72        C1626   1.492       .  S
O73         Cr87   2.003       .  S
O74         Cr87   1.975       .  S
O74          C75   1.262       .  A
C75        C1249   1.492       .  S
O76         Cr85   1.994       .  S
O76          C84   1.262       .  A
O77         Cr85   2.036   1_455  S
O77          C78   1.270       .  A
C78          O79   1.256   1_455  A
C78        C1221   1.487       .  S
O79         Cr86   1.966       .  S
O80         Cr86   2.026       .  S
O80          C81   1.270       .  A
C81          O82   1.262       .  A
C81        C1514   1.477       .  S
O82         Cr87   1.963       .  S
O83         Cr87   2.007       .  S
O83          C84   1.265       .  A
C84        C1361   1.500   1_556  S
Cr85         O88   1.777       .  S
Cr86         O88   1.777       .  S
Cr87         O88   1.765       .  S
O89        Cr107   1.989   1_545  S
O89          C97   1.265       .  A
O90        Cr107   2.017       .  S
O90          C91   1.269       .  A
C91          O92   1.265   1_565  A
C91        C1193   1.497       .  S
O92        Cr108   1.985       .  S
O93        Cr108   1.990       .  S
O93          C94   1.261       .  A
C94          O95   1.262       .  A
C94        C1109   1.488       .  S
O95        Cr109   1.991       .  S
O96        Cr109   2.003       .  S
O96          C97   1.265       .  A
C97        C1318   1.492       .  S
O98        Cr107   2.001   1_545  S
O98         C106   1.265       .  A
O99        Cr107   2.007       .  S
O99         C100   1.263       .  A
C100        O101   1.260       .  A
C100       C1094   1.490       .  S
O101       Cr108   1.987   1_565  S
O102       Cr108   1.988       .  S
O102        C103   1.262       .  A
C103        O104   1.266       .  A
C103       C1150   1.466       .  S
O104       Cr109   1.999       .  S
O105       Cr109   1.979       .  S
O105        C106   1.260       .  A
C106       C1165   1.489       .  S
Cr107       O110   1.770   1_565  S
Cr108       O110   1.767       .  S
Cr109       O110   1.770       .  S
O111       Cr129   2.020       .  S
O111        C119   1.273       .  A
O112       Cr129   1.980   1_545  S
O112        C113   1.260       .  A
C113        O114   1.262       .  A
C113       C1053   1.476       .  S
O114       Cr130   1.988       .  S
O115       Cr130   2.000       .  S
O115        C116   1.261       .  A
C116        O117   1.263       .  A
C116       C1262   1.495       .  S
O117       Cr131   2.006       .  S
O118       Cr131   1.968       .  S
O118        C119   1.262   1_545  A
C119       C1178   1.492       .  S
O120       Cr129   1.993       .  S
O120        C128   1.258       .  A
O121       Cr129   2.014       .  S
O121        C122   1.267   1_565  A
C122        O123   1.260       .  A
C122       C1206   1.496       .  S
O123       Cr130   1.980       .  S
O124       Cr130   1.987       .  S
O124        C125   1.265       .  A
C125        O126   1.264       .  A
C125       C1346   1.462       .  S
O126       Cr131   1.984       .  S
O127       Cr131   2.004   1_565  S
O127        C128   1.260       .  A
C128       C1025   1.475       .  S
Cr129       O132   1.777   1_565  S
Cr130       O132   1.767       .  S
Cr131       O132   1.776       .  S
O133       Cr151   2.016       .  S
O133        C141   1.271       .  A
O134       Cr151   1.968       .  S
O134        C135   1.256       .  A
C135        O136   1.263       .  A
C135        C997   1.479       .  S
O136       Cr152   2.009       .  S
O137       Cr152   1.975       .  S
O137        C138   1.260       .  A
C138        O139   1.263       .  A
C138       C1066   1.484       .  S
O139       Cr153   2.002       .  S
O140       Cr153   1.967       .  S
O140        C141   1.261       .  A
C141       C1557   1.476       .  S
O142       Cr151   1.984       .  S
O142        C150   1.259       .  A
O143       Cr151   2.033       .  S
O143        C144   1.272       .  A
C144        O145   1.255       .  A
C144        C941   1.486       .  S
O145       Cr152   1.952       .  S
O146       Cr152   2.003       .  S
O146        C147   1.265       .  A
C147        O148   1.260       .  A
C147       C1137   1.460       .  S
O148       Cr153   1.972       .  S
O149       Cr153   1.992       .  S
O149        C150   1.261       .  A
C150        C982   1.469   1_556  S
Cr151       O154   1.771       .  S
Cr152       O154   1.770       .  S
Cr153       O154   1.766       .  S
O155       Cr173   2.011       .  S
O155        C163   1.269       .  A
O156       Cr173   1.984       .  S
O156        C157   1.262       .  A
C157        O158   1.265       .  A
C157       C1122   1.488       .  S
O158       Cr174   2.001       .  S
O159       Cr174   1.984       .  S
O159        C160   1.260       .  A
C160        O161   1.262       .  A
C160       C1445   1.481       .  S
O161       Cr175   1.996       .  S
O162       Cr175   1.976       .  S
O162        C163   1.262       .  A
C163        C969   1.490       .  S
O164       Cr173   2.001       .  S
O164        C172   1.263       .  A
O165       Cr173   2.014       .  S
O165        C166   1.265       .  A
C166        O167   1.257       .  A
C166       C1010   1.477       .  S
O167       Cr174   1.970       .  S
O168       Cr174   1.992       .  S
O168        C169   1.266       .  A
C169        O170   1.263       .  A
C169       C1598   1.471       .  S
O170       Cr175   1.986       .  S
O171       Cr175   1.993       .  S
O171        C172   1.261       .  A
C172        C913   1.476       .  S
Cr173       O176   1.775       .  S
Cr174       O176   1.766       .  S
Cr175       O176   1.773       .  S
O177       Cr195   2.025       .  S
O177        C185   1.272       .  A
O178       Cr195   1.964       .  S
O178        C179   1.256       .  A
C179        O180   1.266       .  A
C179        C842   1.477       .  S
O180       Cr196   2.020       .  S
O181       Cr196   1.984       .  S
O181        C182   1.260       .  A
C182        O183   1.264       .  A
C182        C786   1.487       .  S
O183       Cr197   2.010       .  S
O184       Cr197   1.970       .  S
O184        C185   1.261       .  A
C185        C898   1.489       .  S
O186       Cr195   1.984       .  S
O186        C194   1.260       .  A
O187       Cr195   2.032   1_545  S
O187        C188   1.271       .  A
C188        O189   1.258   1_545  A
C188       C1277   1.484       .  S
O189       Cr196   1.962       .  S
O190       Cr196   2.020       .  S
O190        C191   1.269       .  A
C191        O192   1.260       .  A
C191        C801   1.471       .  S
O192       Cr197   1.973       .  S
O193       Cr197   2.003       .  S
O193        C194   1.263       .  A
C194        C857   1.481       .  S
Cr195       O198   1.779       .  S
Cr196       O198   1.780       .  S
Cr197       O198   1.770       .  S
O199       Cr217   2.007   1_545  S
O199        C207   1.266   1_545  A
O200       Cr217   1.990       .  S
O200        C201   1.266       .  A
C201        O202   1.267       .  A
C201        C702   1.497       .  S
O202       Cr218   2.005       .  S
O203       Cr218   1.988       .  S
O203        C204   1.262       .  A
C204        O205   1.262       .  A
C204        C717   1.484       .  S
O205       Cr219   1.998       .  S
O206       Cr219   1.994       .  S
O206        C207   1.266       .  A
C207        C870   1.495       .  S
O208       Cr217   2.004   1_545  S
O208        C216   1.265       .  A
O209       Cr217   2.007       .  S
O209        C210   1.262       .  A
C210        O211   1.258       .  A
C210        C829   1.485       .  S
O211       Cr218   1.978       .  S
O212       Cr218   1.987       .  S
O212        C213   1.264       .  A
C213        O214   1.264       .  A
C213        C745   1.468       .  S
O214       Cr219   1.994       .  S
O215       Cr219   1.997   1_545  S
O215        C216   1.264       .  A
C216        C954   1.493       .  S
Cr217       O220   1.775       .  S
Cr218       O220   1.769       .  S
Cr219       O220   1.774       .  S
O221       Cr239   2.030       .  S
O221        C229   1.274       .  A
O222       Cr239   1.957       .  S
O222        C223   1.258       .  A
C223        O224   1.268       .  A
C223        C661   1.491       .  S
O224       Cr240   2.017       .  S
O225       Cr240   1.984       .  S
O225        C226   1.259       .  A
C226        O227   1.261       .  A
C226        C590   1.491       .  S
O227       Cr241   2.004       .  S
O228       Cr241   1.967       .  S
O228        C229   1.263       .  A
C229        C730   1.479       .  S
O230       Cr239   1.999       .  S
O230        C238   1.263       .  A
O231       Cr239   2.032       .  S
O231        C232   1.269       .  A
C232        O233   1.257       .  A
C232       C1542   1.494       .  S
O233       Cr240   1.965       .  S
O234       Cr240   2.021       .  S
O234        C235   1.271       .  A
C235        O236   1.262       .  A
C235        C605   1.482       .  S
O236       Cr241   1.962       .  S
O237       Cr241   1.991       .  S
O237        C238   1.259       .  A
C238        C646   1.488       .  S
Cr239       O242   1.774       .  S
Cr240       O242   1.772       .  S
Cr241       O242   1.767       .  S
O243       Cr261   1.963       .  S
O243        C251   1.258       .  A
O244       Cr261   2.028       .  S
O244        C245   1.273       .  A
C245        O246   1.260       .  A
C245        C549   1.484       .  S
O246       Cr262   1.962       .  S
O247       Cr262   2.000       .  S
O247        C248   1.262       .  A
C248        O249   1.261       .  A
C248        C885   1.488       .  S
O249       Cr263   1.986       .  S
O250       Cr263   2.019       .  S
O250        C251   1.268       .  A
C251        C633   1.493       .  S
O252       Cr261   2.024       .  S
O252        C260   1.269       .  A
O253       Cr261   1.984       .  S
O253        C254   1.259       .  A
C254        O255   1.263       .  A
C254        C674   1.483       .  S
O255       Cr262   1.998       .  S
O256       Cr262   1.968       .  S
O256        C257   1.262       .  A
C257        O258   1.268       .  A
C257        C758   1.487       .  S
O258       Cr263   2.015       .  S
O259       Cr263   1.967       .  S
O259        C260   1.257       .  A
C260       C1081   1.484       .  S
Cr261       O264   1.771       .  S
Cr262       O264   1.763       .  S
Cr263       O264   1.768       .  S
O265       Cr283   2.015       .  S
O265        C273   1.270   1_655  A
O266       Cr283   1.982   1_455  S
O266        C267   1.262       .  A
C267        O268   1.267       .  A
C267        C773   1.492       .  S
O268       Cr284   2.003       .  S
O269       Cr284   1.986       .  S
O269        C270   1.260       .  A
C270        O271   1.260       .  A
C270        C437   1.478       .  S
O271       Cr285   1.988       .  S
O272       Cr285   1.995       .  S
O272        C273   1.265       .  A
C273        C506   1.498   1_455  S
O274       Cr283   1.991       .  S
O274        C282   1.261       .  A
O275       Cr283   2.019   1_455  S
O275        C276   1.266       .  A
C276        O277   1.257       .  A
C276        C534   1.494       .  S
O277       Cr284   1.969       .  S
O278       Cr284   1.999       .  S
O278        C279   1.267       .  A
C279        O280   1.264       .  A
C279        C465   1.476       .  S
O280       Cr285   1.992       .  S
O281       Cr285   1.988   1_655  S
O281        C282   1.261       .  A
C282       C1417   1.469       .  S
Cr283       O286   1.776   1_655  S
Cr284       O286   1.770       .  S
Cr285       O286   1.775       .  S
O287       Cr305   2.024   1_455  S
O287        C295   1.274       .  A
O288       Cr305   1.976       .  S
O288        C289   1.261       .  A
C289        O290   1.268       .  A
C289        C521   1.492       .  S
O290       Cr306   2.013   1_655  S
O291       Cr306   1.983       .  S
O291        C292   1.256       .  A
C292        O293   1.260       .  A
C292        C689   1.490       .  S
O293       Cr307   2.005       .  S
O294       Cr307   1.975       .  S
O294        C295   1.265       .  A
C295        C409   1.489       .  S
O296       Cr305   2.006       .  S
O296        C304   1.262   1_655  A
O297       Cr305   2.020       .  S
O297        C298   1.267       .  A
C298        O299   1.257       .  A
C298       C1038   1.479       .  S
O299       Cr306   1.965   1_655  S
O300       Cr306   2.026       .  S
O300        C301   1.272       .  A
C301        O302   1.263       .  A
C301        C814   1.472       .  S
O302       Cr307   1.971       .  S
O303       Cr307   1.996       .  S
O303        C304   1.259       .  A
C304        C493   1.494       .  S
Cr305       O308   1.782   1_655  S
Cr306       O308   1.782       .  S
Cr307       O308   1.774       .  S
O309       Cr327   1.996       .  S
O309        C317   1.264       .  A
O310       Cr327   2.014       .  S
O310        C311   1.269       .  A
C311        O312   1.262       .  A
C311        C381   1.488       .  S
O312       Cr328   1.976       .  S
O313       Cr328   1.997       .  S
O313        C314   1.262       .  A
C314        O315   1.261       .  A
C314        C562   1.485       .  S
O315       Cr329   1.987       .  S
O316       Cr329   1.988       .  S
O316        C317   1.262       .  A
C317        C450   1.483       .  S
O318       Cr327   2.011       .  S
O318        C326   1.265       .  A
O319       Cr327   2.003       .  S
O319        C320   1.263       .  A
C320        O321   1.262       .  A
C320        C926   1.486       .  S
O321       Cr328   1.997       .  S
O322       Cr328   1.990       .  S
O322        C323   1.264       .  A
C323        O324   1.265       .  A
C323        C618   1.467       .  S
O324       Cr329   1.990       .  S
O325       Cr329   1.975       .  S
O325        C326   1.260       .  A
C326        C353   1.495       .  S
Cr327       O330   1.772       .  S
Cr328       O330   1.773       .  S
Cr329       O330   1.764       .  S
O331       Cr349   1.971       .  S
O331        C339   1.259       .  A
O332       Cr349   2.037       .  S
O332        C333   1.279       .  A
C333        O334   1.266       .  A
C333        C577   1.489       .  S
O334       Cr350   1.960       .  S
O335       Cr350   2.003       .  S
O335        C336   1.257       .  A
C336        O337   1.254       .  A
C336        C422   1.490       .  S
O337       Cr351   1.991       .  S
O338       Cr351   2.009       .  S
O338        C339   1.268       .  A
C339        C366   1.491       .  S
O340       Cr349   2.020       .  S
O340        C348   1.268       .  A
O341       Cr349   1.996       .  S
O341        C342   1.256       .  A
C342        O343   1.256       .  A
C342        C394   1.491       .  S
O343       Cr350   1.990       .  S
O344       Cr350   1.954       .  S
O344        C345   1.262       .  A
C345        O346   1.279       .  A
C345        C478   1.487       .  S
O346       Cr351   2.037       .  S
O347       Cr351   1.966       .  S
O347        C348   1.258       .  A
C348       C1234   1.494       .  S
Cr349       O352   1.775       .  S
Cr350       O352   1.772       .  S
Cr351       O352   1.772       .  S
C353        C354   1.420       .  A
C353        C358   1.409       .  A
C354        C355   1.410       .  A
C354        N359   1.438       .  S
C355        C356   1.400       .  A
C355        H360   1.084       .  S
C356        C361   1.483       .  S
C356        C357   1.406       .  A
C357        C358   1.405       .  A
C357        N362   1.438       .  S
C358        H363   1.083       .  S
N359        H379   1.045       .  S
N359        H380   1.046       .  S
C361        C364   1.400       .  A
C361        C368   1.408       .  A
N362        H377   1.046       .  S
N362        H378   1.045       .  S
C364        C365   1.407       .  A
C364        H369   1.084       .  S
C365        C366   1.418       .  A
C365        N370   1.438       .  S
C366        C367   1.407       .  A
C367        C368   1.408       .  A
C367        H371   1.083       .  S
C368        N372   1.437       .  S
N370        H373   1.046       .  S
N370        H374   1.046       .  S
N372        H375   1.046       .  S
N372        H376   1.046       .  S
C381        C382   1.415       .  A
C381        C386   1.408       .  A
C382        C383   1.405       .  A
C382        N387   1.438       .  S
C383        C384   1.402       .  A
C383        H388   1.084       .  S
C384        C389   1.484       .  S
C384        C385   1.408       .  A
C385        C386   1.406       .  A
C385        N390   1.438       .  S
C386        H391   1.083       .  S
N387        H407   1.046       .  S
N387        H408   1.046       .  S
C389        C392   1.403       .  A
C389        C396   1.407       .  A
N390        H405   1.045       .  S
N390        H406   1.046       .  S
C392        C393   1.410       .  A
C392        H397   1.084       .  S
C393        C394   1.417   1_554  A
C393        N398   1.437   1_554  S
C394        C395   1.409   1_556  A
C395        C396   1.401       .  A
C395        H399   1.083   1_554  S
C396        N400   1.439       .  S
N398        H401   1.046   1_556  S
N398        H402   1.045       .  S
N400        H403   1.046       .  S
N400        H404   1.046       .  S
C409        C410   1.415       .  A
C409        C414   1.408       .  A
C410        C411   1.406       .  A
C410        N415   1.438       .  S
C411        C412   1.403       .  A
C411        H416   1.084       .  S
C412        C417   1.491       .  S
C412        C413   1.411       .  A
C413        C414   1.410       .  A
C413        N418   1.437       .  S
C414        H419   1.084       .  S
N415        H435   1.045       .  S
N415        H436   1.046       .  S
C417        C420   1.405       .  A
C417        C424   1.410       .  A
N418        H433   1.046       .  S
N418        H434   1.045       .  S
C420        C421   1.412       .  A
C420        H425   1.083       .  S
C421        C422   1.415       .  A
C421        N426   1.438       .  S
C422        C423   1.406       .  A
C423        C424   1.405       .  A
C423        H427   1.083       .  S
C424        N428   1.438       .  S
N426        H429   1.046       .  S
N426        H430   1.046       .  S
N428        H431   1.045       .  S
N428        H432   1.046       .  S
C437        C438   1.413       .  A
C437        C442   1.404       .  A
C438        C439   1.402       .  A
C438        N443   1.438       .  S
C439        C440   1.401       .  A
C439        H444   1.084       .  S
C440        C445   1.484       .  S
C440        C441   1.411       .  A
C441        C442   1.408       .  A
C441        N446   1.437       .  S
C442        H447   1.084       .  S
N443        H463   1.046       .  S
N443        H464   1.046       .  S
C445        C448   1.405       .  A
C445        C452   1.408       .  A
N446        H461   1.046       .  S
N446        H462   1.046       .  S
C448        C449   1.409       .  A
C448        H453   1.084       .  S
C449        C450   1.413       .  A
C449        N454   1.438       .  S
C450        C451   1.408       .  A
C451        C452   1.402       .  A
C451        H455   1.084       .  S
C452        N456   1.438       .  S
N454        H457   1.046       .  S
N454        H458   1.046       .  S
N456        H459   1.046       .  S
N456        H460   1.046       .  S
C465        C466   1.410       .  A
C465        C470   1.403       .  A
C466        C467   1.401       .  A
C466        N471   1.437       .  S
C467        C468   1.402       .  A
C467        H472   1.084   1_554  S
C468        C473   1.486       .  S
C468        C469   1.413       .  A
C469        C470   1.411       .  A
C469        N474   1.437       .  S
C470        H475   1.083       .  S
N471        H491   1.046       .  S
N471        H492   1.046       .  S
C473        C476   1.401       .  A
C473        C480   1.412   1_554  A
N474        H489   1.046       .  S
N474        H490   1.045       .  S
C476        C477   1.400   1_554  A
C476        H481   1.084       .  S
C477        C478   1.416       .  A
C477        N482   1.434   1_556  S
C478        C479   1.406       .  A
C479        C480   1.408       .  A
C479        H483   1.083       .  S
C480        N484   1.437       .  S
N482        H485   1.046       .  S
N482        H486   1.046       .  S
N484        H487   1.046       .  S
N484        H488   1.046       .  S
C493        C494   1.417       .  A
C493        C498   1.407   1_455  A
C494        C495   1.407       .  A
C494        N499   1.438       .  S
C495        C496   1.400   1_455  A
C495        H500   1.084       .  S
C496        C501   1.493       .  S
C496        C497   1.412       .  A
C497        C498   1.416       .  A
C497        N502   1.437       .  S
C498        H503   1.083       .  S
N499        H519   1.046       .  S
N499        H520   1.046       .  S
C501        C504   1.405   1_655  A
C501        C508   1.408       .  A
N502        H517   1.046       .  S
N502        H518   1.046       .  S
C504        C505   1.415       .  A
C504        H509   1.084       .  S
C505        C506   1.418   1_455  A
C505        N510   1.437       .  S
C506        C507   1.408       .  A
C507        C508   1.407       .  A
C507        H511   1.083       .  S
C508        N512   1.437       .  S
N510        H513   1.046       .  S
N510        H514   1.045       .  S
N512        H515   1.046       .  S
N512        H516   1.045       .  S
C521        C522   1.416   1_655  A
C521        C526   1.409       .  A
C522        C523   1.410       .  A
C522        N527   1.438       .  S
C523        C524   1.402   1_455  A
C523        H528   1.084       .  S
C524        C529   1.485       .  S
C524        C525   1.408       .  A
C525        C526   1.408       .  A
C525        N530   1.438       .  S
C526        H531   1.084       .  S
N527        H547   1.045       .  S
N527        H548   1.046       .  S
C529        C532   1.403   1_556  A
C529        C536   1.408   1_655  A
N530        H545   1.046       .  S
N530        H546   1.045       .  S
C532        C533   1.412       .  A
C532        H537   1.084       .  S
C533        C534   1.417   1_655  A
C533        N538   1.437       .  S
C534        C535   1.409       .  A
C535        C536   1.404   1_554  A
C535        H539   1.083       .  S
C536        N540   1.439       .  S
N538        H541   1.046       .  S
N538        H542   1.046       .  S
N540        H543   1.046       .  S
N540        H544   1.044       .  S
C549        C550   1.417       .  A
C549        C554   1.405       .  A
C550        C551   1.403       .  A
C550        N555   1.438       .  S
C551        C552   1.400       .  A
C551        H556   1.084       .  S
C552        C557   1.485       .  S
C552        C553   1.412       .  A
C553        C554   1.408       .  A
C553        N558   1.438       .  S
C554        H559   1.084       .  S
N555        H575   1.045       .  S
N555        H576   1.046       .  S
C557        C560   1.401       .  A
C557        C564   1.411       .  A
N558        H573   1.046       .  S
N558        H574   1.046       .  S
C560        C561   1.405       .  A
C560        H565   1.084       .  S
C561        C562   1.416       .  A
C561        N566   1.438       .  S
C562        C563   1.404       .  A
C563        C564   1.406       .  A
C563        H567   1.083       .  S
C564        N568   1.438       .  S
N566        H569   1.046       .  S
N566        H570   1.046       .  S
N568        H571   1.046       .  S
N568        H572   1.045       .  S
C577        C578   1.416       .  A
C577        C582   1.409       .  A
C578        C579   1.409       .  A
C578        N583   1.438       .  S
C579        C580   1.403       .  A
C579        H584   1.084       .  S
C580        C585   1.483       .  S
C580        C581   1.406       .  A
C581        C582   1.403       .  A
C581        N586   1.438       .  S
C582        H587   1.083       .  S
N583        H603   1.045       .  S
N583        H604   1.046       .  S
C585        C588   1.401       .  A
C585        C592   1.407       .  A
N586        H601   1.046       .  S
N586        H602   1.046       .  S
C588        C589   1.407       .  A
C588        H593   1.084       .  S
C589        C590   1.419       .  A
C589        N594   1.438       .  S
C590        C591   1.408       .  A
C591        C592   1.407       .  A
C591        H595   1.083       .  S
C592        N596   1.437       .  S
N594        H597   1.046       .  S
N594        H598   1.046       .  S
N596        H599   1.045       .  S
N596        H600   1.046       .  S
C605        C606   1.416       .  A
C605        C610   1.404       .  A
C606        C607   1.410       .  A
C606        N611   1.437       .  S
C607        C608   1.402       .  A
C607        H612   1.083       .  S
C608        C613   1.475       .  S
C608        C609   1.408       .  A
C609        C610   1.397       .  A
C609        N614   1.440       .  S
C610        H615   1.083       .  S
N611        H631   1.046       .  S
N611        H632   1.046       .  S
C613        C616   1.399       .  A
C613        C620   1.410       .  A
N614        H629   1.046       .  S
N614        H630   1.044       .  S
C616        C617   1.400       .  A
C616        H621   1.084       .  S
C617        C618   1.409       .  A
C617        N622   1.437       .  S
C618        C619   1.402       .  A
C619        C620   1.408       .  A
C619        H623   1.084       .  S
C620        N624   1.438       .  S
N622        H625   1.046       .  S
N622        H626   1.045       .  S
N624        H627   1.046       .  S
N624        H628   1.045       .  S
C633        C634   1.419       .  A
C633        C638   1.409       .  A
C634        C635   1.411       .  A
C634        N639   1.437       .  S
C635        C636   1.402       .  A
C635        H640   1.084       .  S
C636        C641   1.480       .  S
C636        C637   1.405       .  A
C637        C638   1.401       .  A
C637        N642   1.438       .  S
C638        H643   1.083       .  S
N639        H659   1.046       .  S
N639        H660   1.045       .  S
C641        C644   1.397       .  A
C641        C648   1.408       .  A
N642        H657   1.046       .  S
N642        H658   1.045       .  S
C644        C645   1.400       .  A
C644        H649   1.084       .  S
C645        C646   1.419       .  A
C645        N650   1.439       .  S
C646        C647   1.408       .  A
C647        C648   1.412       .  A
C647        H651   1.083       .  S
C648        N652   1.437       .  S
N650        H653   1.045       .  S
N650        H654   1.046       .  S
N652        H655   1.046       .  S
N652        H656   1.046       .  S
C661        C662   1.417       .  A
C661        C666   1.410       .  A
C662        C663   1.408       .  A
C662        N667   1.438       .  S
C663        C664   1.403       .  A
C663        H668   1.084       .  S
C664        C669   1.482       .  S
C664        C665   1.407       .  A
C665        C666   1.400       .  A
C665        N670   1.439       .  S
C666        H671   1.083       .  S
N667        H687   1.046       .  S
N667        H688   1.046       .  S
C669        C672   1.404       .  A
C669        C676   1.408       .  A
N670        H685   1.046       .  S
N670        H686   1.046       .  S
C672        C673   1.408   1_556  A
C672        H677   1.084       .  S
C673        C674   1.414       .  A
C673        N678   1.438       .  S
C674        C675   1.406       .  A
C675        C676   1.400   1_554  A
C675        H679   1.084       .  S
C676        N680   1.439       .  S
N678        H681   1.046       .  S
N678        H682   1.046       .  S
N680        H683   1.046       .  S
N680        H684   1.046       .  S
C689        C690   1.418       .  A
C689        C694   1.407       .  A
C690        C691   1.411       .  A
C690        N695   1.438       .  S
C691        C692   1.402       .  A
C691        H696   1.084       .  S
C692        C697   1.485       .  S
C692        C693   1.410       .  A
C693        C694   1.400       .  A
C693        N698   1.433       .  S
C694        H699   1.084       .  S
N695        H715   1.046       .  S
N695        H716   1.046       .  S
C697        C700   1.398       .  A
C697        C704   1.410       .  A
N698        H713   1.046       .  S
N698        H714   1.044       .  S
C700        C701   1.404       .  A
C700        H705   1.084       .  S
C701        C702   1.419       .  A
C701        N706   1.433       .  S
C702        C703   1.409       .  A
C703        C704   1.411       .  A
C703        H707   1.083       .  S
C704        N708   1.438       .  S
N706        H709   1.046       .  S
N706        H710   1.046       .  S
N708        H711   1.046       .  S
N708        H712   1.044       .  S
C717        C718   1.414       .  A
C717        C722   1.406       .  A
C718        C719   1.409       .  A
C718        N723   1.438       .  S
C719        C720   1.402       .  A
C719        H724   1.084       .  S
C720        C725   1.482       .  S
C720        C721   1.408       .  A
C721        C722   1.406       .  A
C721        N726   1.438       .  S
C722        H727   1.084       .  S
N723        H743   1.046       .  S
N723        H744   1.046       .  S
C725        C728   1.400       .  A
C725        C732   1.411       .  A
N726        H741   1.046       .  S
N726        H742   1.045       .  S
C728        C729   1.403       .  A
C728        H733   1.084       .  S
C729        C730   1.410       .  A
C729        N734   1.433       .  S
C730        C731   1.404       .  A
C731        C732   1.409       .  A
C731        H735   1.084       .  S
C732        N736   1.437       .  S
N734        H737   1.046       .  S
N734        H738   1.045       .  S
N736        H739   1.046       .  S
N736        H740   1.045       .  S
C745        C746   1.406       .  A
C745        C750   1.403       .  A
C746        C747   1.406       .  A
C746        N751   1.436       .  S
C747        C748   1.404   1_556  A
C747        H752   1.084       .  S
C748        C753   1.479       .  S
C748        C749   1.409       .  A
C749        C750   1.403   1_554  A
C749        N754   1.438       .  S
C750        H755   1.084       .  S
N751        H771   1.046       .  S
N751        H772   1.046       .  S
C753        C756   1.400       .  A
C753        C760   1.408       .  A
N754        H769   1.046       .  S
N754        H770   1.046       .  S
C756        C757   1.409       .  A
C756        H761   1.084       .  S
C757        C758   1.420       .  A
C757        N762   1.438       .  S
C758        C759   1.406       .  A
C759        C760   1.399       .  A
C759        H763   1.083       .  S
C760        N764   1.439   1_554  S
N762        H765   1.046       .  S
N762        H766   1.045       .  S
N764        H767   1.046       .  S
N764        H768   1.046       .  S
C773        C774   1.417       .  A
C773        C778   1.408       .  A
C774        C775   1.409       .  A
C774        N779   1.438       .  S
C775        C776   1.404       .  A
C775        H780   1.084       .  S
C776        C781   1.490       .  S
C776        C777   1.409       .  A
C777        C778   1.405       .  A
C777        N782   1.438       .  S
C778        H783   1.083       .  S
N779        H799   1.046       .  S
N779        H800   1.046       .  S
C781        C784   1.403       .  A
C781        C788   1.411       .  A
N782        H797   1.046       .  S
N782        H798   1.045       .  S
C784        C785   1.401       .  A
C784        H789   1.084       .  S
C785        C786   1.417       .  A
C785        N790   1.432       .  S
C786        C787   1.406       .  A
C787        C788   1.409       .  A
C787        H791   1.084       .  S
C788        N792   1.438       .  S
N790        H793   1.044       .  S
N790        H794   1.045       .  S
N792        H795   1.046       .  S
N792        H796   1.045       .  S
C801        C802   1.409       .  A
C801        C806   1.401       .  A
C802        C803   1.404       .  A
C802        N807   1.439       .  S
C803        C804   1.407       .  A
C803        H808   1.083       .  S
C804        C809   1.492       .  S
C804        C805   1.414       .  A
C805        C806   1.407       .  A
C805        N810   1.437       .  S
C806        H811   1.084       .  S
N807        H827   1.045       .  S
N807        H828   1.046       .  S
C809        C812   1.406       .  A
C809        C816   1.414       .  A
N810        H825   1.046       .  S
N810        H826   1.045       .  S
C812        C813   1.403       .  A
C812        H817   1.083       .  S
C813        C814   1.409       .  A
C813        N818   1.438       .  S
C814        C815   1.402       .  A
C815        C816   1.408       .  A
C815        H819   1.084       .  S
C816        N820   1.437       .  S
N818        H821   1.046       .  S
N818        H822   1.045       .  S
N820        H823   1.046   1_455  S
N820        H824   1.046       .  S
C829        C830   1.416       .  A
C829        C834   1.404   1_556  A
C830        C831   1.409   1_556  A
C830        N835   1.438       .  S
C831        C832   1.404       .  A
C831        H836   1.083       .  S
C832        C837   1.491       .  S
C832        C833   1.413       .  A
C833        C834   1.404       .  A
C833        N838   1.438       .  S
C834        H839   1.083       .  S
N835        H855   1.045   1_565  S
N835        H856   1.046       .  S
C837        C840   1.403       .  A
C837        C844   1.415   1_565  A
N838        H853   1.046       .  S
N838        H854   1.045   1_565  S
C840        C841   1.402       .  A
C840        H845   1.084       .  S
C841        C842   1.410       .  A
C841        N846   1.439       .  S
C842        C843   1.403   1_565  A
C843        C844   1.411       .  A
C843        H847   1.084       .  S
C844        N848   1.437       .  S
N846        H849   1.046       .  S
N846        H850   1.046       .  S
N848        H851   1.046       .  S
N848        H852   1.046       .  S
C857        C858   1.413       .  A
C857        C862   1.403       .  A
C858        C859   1.411   1_565  A
C858        N863   1.437   1_565  S
C859        C860   1.404   1_545  A
C859        H864   1.084       .  S
C860        C865   1.485       .  S
C860        C861   1.410       .  A
C861        C862   1.404       .  A
C861        N866   1.438       .  S
C862        H867   1.084       .  S
N863        H883   1.046   1_545  S
N863        H884   1.046       .  S
C865        C868   1.398   1_565  A
C865        C872   1.409       .  A
N866        H881   1.045       .  S
N866        H882   1.045       .  S
C868        C869   1.406       .  A
C868        H873   1.084       .  S
C869        C870   1.422   1_545  A
C869        N874   1.438       .  S
C870        C871   1.408       .  A
C871        C872   1.410       .  A
C871        H875   1.083       .  S
C872        N876   1.438       .  S
N874        H877   1.046   1_545  S
N874        H878   1.046       .  S
N876        H879   1.045       .  S
N876        H880   1.046       .  S
C885        C886   1.417       .  A
C885        C890   1.407       .  A
C886        C887   1.400       .  A
C886        N891   1.433       .  S
C887        C888   1.399       .  A
C887        H892   1.084       .  S
C888        C893   1.483       .  S
C888        C889   1.410       .  A
C889        C890   1.409       .  A
C889        N894   1.437       .  S
C890        H895   1.083       .  S
N891        H911   1.046       .  S
N891        H912   1.045       .  S
C893        C896   1.399       .  A
C893        C900   1.410       .  A
N894        H909   1.046       .  S
N894        H910   1.045       .  S
C896        C897   1.406       .  A
C896        H901   1.084       .  S
C897        C898   1.418       .  A
C897        N902   1.437       .  S
C898        C899   1.406       .  A
C899        C900   1.408       .  A
C899        H903   1.084       .  S
C900        N904   1.438       .  S
N902        H905   1.046       .  S
N902        H906   1.044       .  S
N904        H907   1.046       .  S
N904        H908   1.046       .  S
C913        C914   1.407       .  A
C913        C918   1.403       .  A
C914        C915   1.410       .  A
C914        N919   1.437       .  S
C915        C916   1.408       .  A
C915        H920   1.084       .  S
C916        C921   1.494       .  S
C916        C917   1.413       .  A
C917        C918   1.407       .  A
C917        N922   1.438       .  S
C918        H923   1.084       .  S
N919        H939   1.045       .  S
N919        H940   1.046       .  S
C921        C924   1.407       .  A
C921        C928   1.412       .  A
N922        H937   1.046       .  S
N922        H938   1.045       .  S
C924        C925   1.414       .  A
C924        H929   1.083       .  S
C925        C926   1.414       .  A
C925        N930   1.437       .  S
C926        C927   1.404       .  A
C927        C928   1.404       .  A
C927        H931   1.084       .  S
C928        N932   1.439       .  S
N930        H933   1.046       .  S
N930        H934   1.045       .  S
N932        H935   1.045       .  S
N932        H936   1.046       .  S
C941        C942   1.418       .  A
C941        C946   1.404       .  A
C942        C943   1.403       .  A
C942        N947   1.439       .  S
C943        C944   1.399       .  A
C943        H948   1.084       .  S
C944        C949   1.484       .  S
C944        C945   1.412       .  A
C945        C946   1.411       .  A
C945        N950   1.437       .  S
C946        H951   1.083       .  S
N947        H967   1.045       .  S
N947        H968   1.046       .  S
C949        C952   1.405       .  A
C949        C956   1.404       .  A
N950        H965   1.045       .  S
N950        H966   1.044       .  S
C952        C953   1.416       .  A
C952        H957   1.083       .  S
C953        C954   1.418       .  A
C953        N958   1.437       .  S
C954        C955   1.408       .  A
C955        C956   1.398       .  A
C955        H959   1.084       .  S
C956        N960   1.433       .  S
N958        H961   1.046       .  S
N958        H962   1.046       .  S
N960        H963   1.046       .  S
N960        H964   1.045       .  S
C969        C970   1.419       .  A
C969        C974   1.409       .  A
C970        C971   1.406       .  A
C970        N975   1.438       .  S
C971        C972   1.399       .  A
C971        H976   1.084       .  S
C972        C977   1.477       .  S
C972        C973   1.405       .  A
C973        C974   1.405       .  A
C973        N978   1.437       .  S
C974        H979   1.083       .  S
N975        H995   1.046       .  S
N975        H996   1.046       .  S
C977        C980   1.401       .  A
C977        C984   1.409       .  A
N978        H993   1.045       .  S
N978        H994   1.046       .  S
C980        C981   1.404       .  A
C980        H985   1.084       .  S
C981        C982   1.410       .  A
C981        N986   1.438       .  S
C982        C983   1.402       .  A
C983        C984   1.407       .  A
C983        H987   1.084       .  S
C984        N988   1.437       .  S
N986        H989   1.046       .  S
N986        H990   1.046       .  S
N988        H991   1.046       .  S
N988        H992   1.046       .  S
C997        C998   1.412       .  A
C997       C1002   1.404       .  A
C998        C999   1.409       .  A
C998       N1003   1.437       .  S
C999       C1000   1.406       .  A
C999       H1004   1.083       .  S
C1000      C1005   1.489       .  S
C1000      C1001   1.412       .  A
C1001      C1002   1.402       .  A
C1001      N1006   1.438       .  S
C1002      H1007   1.084       .  S
N1003      H1023   1.045       .  S
N1003      H1024   1.046       .  S
C1005      C1008   1.405       .  A
C1005      C1012   1.413       .  A
N1006      H1021   1.046       .  S
N1006      H1022   1.046       .  S
C1008      C1009   1.403       .  A
C1008      H1013   1.084       .  S
C1009      C1010   1.410       .  A
C1009      N1014   1.438       .  S
C1010      C1011   1.404       .  A
C1011      C1012   1.408       .  A
C1011      H1015   1.084       .  S
C1012      N1016   1.438       .  S
N1014      H1017   1.046       .  S
N1014      H1018   1.045       .  S
N1016      H1019   1.046       .  S
N1016      H1020   1.046       .  S
C1025      C1026   1.409       .  A
C1025      C1030   1.401       .  A
C1026      C1027   1.409       .  A
C1026      N1031   1.438       .  S
C1027      C1028   1.406       .  A
C1027      H1032   1.083       .  S
C1028      C1033   1.493       .  S
C1028      C1029   1.414       .  A
C1029      C1030   1.408       .  A
C1029      N1034   1.437       .  S
C1030      H1035   1.084       .  S
N1031      H1051   1.046       .  S
N1031      H1052   1.045       .  S
C1033      C1036   1.403       .  A
C1033      C1040   1.415       .  A
N1034      H1049   1.046       .  S
N1034      H1050   1.046       .  S
C1036      C1037   1.402       .  A
C1036      H1041   1.084       .  S
C1037      C1038   1.410       .  A
C1037      N1042   1.439       .  S
C1038      C1039   1.404       .  A
C1039      C1040   1.415       .  A
C1039      H1043   1.083       .  S
C1040      N1044   1.437       .  S
N1042      H1045   1.046       .  S
N1042      H1046   1.046       .  S
N1044      H1047   1.046       .  S
N1044      H1048   1.046       .  S
C1053      C1054   1.413       .  A
C1053      C1058   1.405       .  A
C1054      C1055   1.407       .  A
C1054      N1059   1.438       .  S
C1055      C1056   1.403       .  A
C1055      H1060   1.084       .  S
C1056      C1061   1.475       .  S
C1056      C1057   1.406       .  A
C1057      C1058   1.400       .  A
C1057      N1062   1.438       .  S
C1058      H1063   1.084       .  S
N1059      H1079   1.046       .  S
N1059      H1080   1.046       .  S
C1061      C1064   1.398       .  A
C1061      C1068   1.407       .  A
N1062      H1077   1.045       .  S
N1062      H1078   1.046       .  S
C1064      C1065   1.399       .  A
C1064      H1069   1.084       .  S
C1065      C1066   1.416       .  A
C1065      N1070   1.433       .  S
C1066      C1067   1.408       .  A
C1067      C1068   1.405       .  A
C1067      H1071   1.083       .  S
C1068      N1072   1.437       .  S
N1070      H1073   1.046       .  S
N1070      H1074   1.046       .  S
N1072      H1075   1.046       .  S
N1072      H1076   1.046       .  S
C1081      C1082   1.415       .  A
C1081      C1086   1.403       .  A
C1082      C1083   1.407       .  A
C1082      N1087   1.438       .  S
C1083      C1084   1.403       .  A
C1083      H1088   1.084       .  S
C1084      C1089   1.490       .  S
C1084      C1085   1.414       .  A
C1085      C1086   1.408       .  A
C1085      N1090   1.437       .  S
C1086      H1091   1.084       .  S
N1087      H1107   1.046       .  S
N1087      H1108   1.046       .  S
C1089      C1092   1.399       .  A
C1089      C1096   1.414       .  A
N1090      H1105   1.046       .  S
N1090      H1106   1.045       .  S
C1092      C1093   1.396       .  A
C1092      H1097   1.084       .  S
C1093      C1094   1.414       .  A
C1093      N1098   1.433       .  S
C1094      C1095   1.409       .  A
C1095      C1096   1.417       .  A
C1095      H1099   1.083       .  S
C1096      N1100   1.437       .  S
N1098      H1101   1.045       .  S
N1098      H1102   1.046       .  S
N1100      H1103   1.046       .  S
N1100      H1104   1.046       .  S
C1109      C1110   1.420       .  A
C1109      C1114   1.407       .  A
C1110      C1111   1.403       .  A
C1110      N1115   1.439       .  S
C1111      C1112   1.397       .  A
C1111      H1116   1.084       .  S
C1112      C1117   1.477       .  S
C1112      C1113   1.408       .  A
C1113      C1114   1.408       .  A
C1113      N1118   1.437       .  S
C1114      H1119   1.083       .  S
N1115      H1135   1.046       .  S
N1115      H1136   1.046       .  S
C1117      C1120   1.398       .  A
C1117      C1124   1.408       .  A
N1118      H1133   1.045       .  S
N1118      H1134   1.045       .  S
C1120      C1121   1.405       .  A
C1120      H1125   1.084       .  S
C1121      C1122   1.419       .  A
C1121      N1126   1.438       .  S
C1122      C1123   1.407       .  A
C1123      C1124   1.407       .  A
C1123      H1127   1.084       .  S
C1124      N1128   1.438       .  S
N1126      H1129   1.046       .  S
N1126      H1130   1.046       .  S
N1128      H1131   1.046       .  S
N1128      H1132   1.045       .  S
C1137      C1138   1.407       .  A
C1137      C1142   1.400   1_556  A
C1138      C1139   1.399   1_556  A
C1138      N1143   1.439       .  S
C1139      C1140   1.405       .  A
C1139      H1144   1.083       .  S
C1140      C1145   1.482       .  S
C1140      C1141   1.413       .  A
C1141      C1142   1.404       .  A
C1141      N1146   1.437       .  S
C1142      H1147   1.083       .  S
N1143      H1163   1.045       .  S
N1143      H1164   1.045       .  S
C1145      C1148   1.403       .  A
C1145      C1152   1.413       .  A
N1146      H1161   1.046       .  S
N1146      H1162   1.046       .  S
C1148      C1149   1.399       .  A
C1148      H1153   1.083       .  S
C1149      C1150   1.408       .  A
C1149      N1154   1.439       .  S
C1150      C1151   1.401       .  A
C1151      C1152   1.407       .  A
C1151      H1155   1.084       .  S
C1152      N1156   1.437       .  S
N1154      H1157   1.046       .  S
N1154      H1158   1.045       .  S
N1156      H1159   1.046   1_545  S
N1156      H1160   1.045       .  S
C1165      C1166   1.414       .  A
C1165      C1170   1.408   1_545  A
C1166      C1167   1.404       .  A
C1166      N1171   1.433       .  S
C1167      C1168   1.403       .  A
C1167      H1172   1.084   1_554  S
C1168      C1173   1.484   1_554  S
C1168      C1169   1.408   1_545  A
C1169      C1170   1.404       .  A
C1169      N1174   1.438       .  S
C1170      H1175   1.083       .  S
N1171      H1191   1.046       .  S
N1171      H1192   1.046       .  S
C1173      C1176   1.400       .  A
C1173      C1180   1.408   1_545  A
N1174      H1189   1.045       .  S
N1174      H1190   1.046       .  S
C1176      C1177   1.405       .  A
C1176      H1181   1.084       .  S
C1177      C1178   1.420   1_545  A
C1177      N1182   1.438       .  S
C1178      C1179   1.409       .  A
C1179      C1180   1.406       .  A
C1179      H1183   1.083       .  S
C1180      N1184   1.438       .  S
N1182      H1185   1.046       .  S
N1182      H1186   1.045       .  S
N1184      H1187   1.045       .  S
N1184      H1188   1.046       .  S
C1193      C1194   1.421       .  A
C1193      C1198   1.408   1_565  A
C1194      C1195   1.410       .  A
C1194      N1199   1.438       .  S
C1195      C1196   1.400       .  A
C1195      H1200   1.084       .  S
C1196      C1201   1.487       .  S
C1196      C1197   1.408   1_565  A
C1197      C1198   1.408       .  A
C1197      N1202   1.438       .  S
C1198      H1203   1.083       .  S
N1199      H1219   1.045       .  S
N1199      H1220   1.046       .  S
C1201      C1204   1.400   1_565  A
C1201      C1208   1.409       .  A
N1202      H1217   1.046       .  S
N1202      H1218   1.045       .  S
C1204      C1205   1.407       .  A
C1204      H1209   1.084       .  S
C1205      C1206   1.419       .  A
C1205      N1210   1.438       .  S
C1206      C1207   1.410   1_545  A
C1207      C1208   1.412       .  A
C1207      H1211   1.083       .  S
C1208      N1212   1.437       .  S
N1210      H1213   1.046       .  S
N1210      H1214   1.046       .  S
N1212      H1215   1.046       .  S
N1212      H1216   1.045       .  S
C1221      C1222   1.413       .  A
C1221      C1226   1.406       .  A
C1222      C1223   1.406       .  A
C1222      N1227   1.437       .  S
C1223      C1224   1.401       .  A
C1223      H1228   1.084       .  S
C1224      C1229   1.489       .  S
C1224      C1225   1.412       .  A
C1225      C1226   1.414       .  A
C1225      N1230   1.437       .  S
C1226      H1231   1.083       .  S
N1227      H1247   1.046       .  S
N1227      H1248   1.046       .  S
C1229      C1232   1.404       .  A
C1229      C1236   1.409       .  A
N1230      H1245   1.046       .  S
N1230      H1246   1.045       .  S
C1232      C1233   1.416       .  A
C1232      H1237   1.083       .  S
C1233      C1234   1.416       .  A
C1233      N1238   1.436       .  S
C1234      C1235   1.407       .  A
C1235      C1236   1.404       .  A
C1235      H1239   1.084       .  S
C1236      N1240   1.439       .  S
N1238      H1241   1.045       .  S
N1238      H1242   1.045       .  S
N1240      H1243   1.045       .  S
N1240      H1244   1.045       .  S
C1249      C1250   1.415       .  A
C1249      C1254   1.407       .  A
C1250      C1251   1.410       .  A
C1250      N1255   1.438       .  S
C1251      C1252   1.406       .  A
C1251      H1256   1.083       .  S
C1252      C1257   1.499       .  S
C1252      C1253   1.413       .  A
C1253      C1254   1.410       .  A
C1253      N1258   1.438       .  S
C1254      H1259   1.084       .  S
N1255      H1275   1.046       .  S
N1255      H1276   1.045       .  S
C1257      C1260   1.408       .  A
C1257      C1264   1.412       .  A
N1258      H1273   1.045       .  S
N1258      H1274   1.046       .  S
C1260      C1261   1.407       .  A
C1260      H1265   1.084       .  S
C1261      C1262   1.417       .  A
C1261      N1266   1.432       .  S
C1262      C1263   1.408       .  A
C1263      C1264   1.407       .  A
C1263      H1267   1.084       .  S
C1264      N1268   1.438       .  S
N1266      H1269   1.045       .  S
N1266      H1270   1.046       .  S
N1268      H1271   1.045       .  S
N1268      H1272   1.046       .  S
C1277      C1278   1.412       .  A
C1277      C1282   1.404       .  A
C1278      C1279   1.415       .  A
C1278      N1283   1.437       .  S
C1279      C1280   1.407       .  A
C1279      H1284   1.083       .  S
C1280      C1285   1.490       .  S
C1280      C1281   1.410       .  A
C1281      C1282   1.405       .  A
C1281      N1286   1.438       .  S
C1282      H1287   1.084       .  S
N1283      H1303   1.046       .  S
N1283      H1304   1.046       .  S
C1285      C1288   1.405       .  A
C1285      C1292   1.409       .  A
N1286      H1301   1.046       .  S
N1286      H1302   1.046       .  S
C1288      C1289   1.415       .  A
C1288      H1293   1.083       .  S
C1289      C1290   1.415       .  A
C1289      N1294   1.437       .  S
C1290      C1291   1.407       .  A
C1291      C1292   1.405       .  A
C1291      H1295   1.084       .  S
C1292      N1296   1.438       .  S
N1294      H1297   1.046       .  S
N1294      H1298   1.046       .  S
N1296      H1299   1.046       .  S
N1296      H1300   1.046       .  S
C1305      C1306   1.416       .  A
C1305      C1310   1.408       .  A
C1306      C1307   1.407       .  A
C1306      N1311   1.438       .  S
C1307      C1308   1.401       .  A
C1307      H1312   1.084       .  S
C1308      C1313   1.486       .  S
C1308      C1309   1.409       .  A
C1309      C1310   1.409       .  A
C1309      N1314   1.438       .  S
C1310      H1315   1.083       .  S
N1311      H1331   1.046       .  S
N1311      H1332   1.046       .  S
C1313      C1316   1.401       .  A
C1313      C1320   1.409       .  A
N1314      H1329   1.046       .  S
N1314      H1330   1.046       .  S
C1316      C1317   1.409       .  A
C1316      H1321   1.084       .  S
C1317      C1318   1.420       .  A
C1317      N1322   1.438       .  S
C1318      C1319   1.406       .  A
C1319      C1320   1.407       .  A
C1319      H1323   1.083       .  S
C1320      N1324   1.438       .  S
N1322      H1325   1.046       .  S
N1322      H1326   1.045       .  S
N1324      H1327   1.045       .  S
N1324      H1328   1.046       .  S
C1333      C1334   1.415       .  A
C1333      C1338   1.409       .  A
C1334      C1335   1.408       .  A
C1334      N1339   1.437       .  S
C1335      C1336   1.403       .  A
C1335      H1340   1.084       .  S
C1336      C1341   1.482       .  S
C1336      C1337   1.409       .  A
C1337      C1338   1.400       .  A
C1337      N1342   1.439       .  S
C1338      H1343   1.083       .  S
N1339      H1359   1.046       .  S
N1339      H1360   1.046       .  S
C1341      C1344   1.406       .  A
C1341      C1348   1.412       .  A
N1342      H1357   1.046       .  S
N1342      H1358   1.046       .  S
C1344      C1345   1.406       .  A
C1344      H1349   1.084       .  S
C1345      C1346   1.406       .  A
C1345      N1350   1.437       .  S
C1346      C1347   1.400       .  A
C1347      C1348   1.400       .  A
C1347      H1351   1.085       .  S
C1348      N1352   1.439       .  S
N1350      H1353   1.045       .  S
N1350      H1354   1.045       .  S
N1352      H1355   1.046       .  S
N1352      H1356   1.046       .  S
C1361      C1362   1.420       .  A
C1361      C1366   1.410       .  A
C1362      C1363   1.415       .  A
C1362      N1367   1.437   1_655  S
C1363      C1364   1.403       .  A
C1363      H1368   1.084   1_655  S
C1364      C1369   1.488       .  S
C1364      C1365   1.407       .  A
C1365      C1366   1.404       .  A
C1365      N1370   1.438       .  S
C1366      H1371   1.083       .  S
N1367      H1387   1.045       .  S
N1367      H1388   1.046       .  S
C1369      C1372   1.397       .  A
C1369      C1376   1.411       .  A
N1370      H1385   1.046       .  S
N1370      H1386   1.046       .  S
C1372      C1373   1.399       .  A
C1372      H1377   1.084       .  S
C1373      C1374   1.421       .  A
C1373      N1378   1.433       .  S
C1374      C1375   1.410       .  A
C1375      C1376   1.416       .  A
C1375      H1379   1.083       .  S
C1376      N1380   1.437       .  S
N1378      H1381   1.046       .  S
N1378      H1382   1.046       .  S
N1380      H1383   1.046       .  S
N1380      H1384   1.046       .  S
C1389      C1390   1.419       .  A
C1389      C1394   1.407       .  A
C1390      C1391   1.404       .  A
C1390      N1395   1.439       .  S
C1391      C1392   1.401       .  A
C1391      H1396   1.084       .  S
C1392      C1397   1.492       .  S
C1392      C1393   1.413   1_655  A
C1393      C1394   1.412   1_455  A
C1393      N1398   1.437       .  S
C1394      H1399   1.083   1_655  S
N1395      H1415   1.046       .  S
N1395      H1416   1.046       .  S
C1397      C1400   1.401       .  A
C1397      C1404   1.414       .  A
N1398      H1413   1.046       .  S
N1398      H1414   1.045       .  S
C1400      C1401   1.403       .  A
C1400      H1405   1.084       .  S
C1401      C1402   1.417       .  A
C1401      N1406   1.433       .  S
C1402      C1403   1.405       .  A
C1403      C1404   1.410       .  A
C1403      H1407   1.083       .  S
C1404      N1408   1.437       .  S
N1406      H1409   1.046   1_655  S
N1406      H1410   1.046       .  S
N1408      H1411   1.045       .  S
N1408      H1412   1.046       .  S
C1417      C1418   1.407       .  A
C1417      C1422   1.402       .  A
C1418      C1419   1.408       .  A
C1418      N1423   1.436       .  S
C1419      C1420   1.404       .  A
C1419      H1424   1.084       .  S
C1420      C1425   1.479       .  S
C1420      C1421   1.410       .  A
C1421      C1422   1.402       .  A
C1421      N1426   1.439       .  S
C1422      H1427   1.084       .  S
N1423      H1443   1.046       .  S
N1423      H1444   1.045       .  S
C1425      C1428   1.402       .  A
C1425      C1432   1.410       .  A
N1426      H1441   1.046       .  S
N1426      H1442   1.046       .  S
C1428      C1429   1.407       .  A
C1428      H1433   1.084       .  S
C1429      C1430   1.413       .  A
C1429      N1434   1.437       .  S
C1430      C1431   1.403       .  A
C1431      C1432   1.402       .  A
C1431      H1435   1.084       .  S
C1432      N1436   1.439       .  S
N1434      H1437   1.045       .  S
N1434      H1438   1.045       .  S
N1436      H1439   1.046       .  S
N1436      H1440   1.046       .  S
C1445      C1446   1.414       .  A
C1445      C1450   1.406       .  A
C1446      C1447   1.407       .  A
C1446      N1451   1.438       .  S
C1447      C1448   1.403       .  A
C1447      H1452   1.084       .  S
C1448      C1453   1.483       .  S
C1448      C1449   1.409       .  A
C1449      C1450   1.404       .  A
C1449      N1454   1.438       .  S
C1450      H1455   1.084       .  S
N1451      H1471   1.046       .  S
N1451      H1472   1.046       .  S
C1453      C1456   1.401       .  A
C1453      C1460   1.410       .  A
N1454      H1469   1.046       .  S
N1454      H1470   1.046       .  S
C1456      C1457   1.405       .  A
C1456      H1461   1.084       .  S
C1457      C1458   1.415       .  A
C1457      N1462   1.438       .  S
C1458      C1459   1.407       .  A
C1459      C1460   1.405       .  A
C1459      H1463   1.084       .  S
C1460      N1464   1.438       .  S
N1462      H1465   1.046       .  S
N1462      H1466   1.045       .  S
N1464      H1467   1.046       .  S
N1464      H1468   1.046       .  S
C1473      C1474   1.409       .  A
C1473      C1478   1.405       .  A
C1474      C1475   1.400       .  A
C1474      N1479   1.432       .  S
C1475      C1476   1.401       .  A
C1475      H1480   1.084       .  S
C1476      C1481   1.479       .  S
C1476      C1477   1.409       .  A
C1477      C1478   1.406       .  A
C1477      N1482   1.438       .  S
C1478      H1483   1.084       .  S
N1479      H1499   1.045       .  S
N1479      H1500   1.046       .  S
C1481      C1484   1.400       .  A
C1481      C1488   1.407       .  A
N1482      H1497   1.046       .  S
N1482      H1498   1.046       .  S
C1484      C1485   1.406       .  A
C1484      H1489   1.084       .  S
C1485      C1486   1.419       .  A
C1485      N1490   1.438       .  S
C1486      C1487   1.406       .  A
C1487      C1488   1.403       .  A
C1487      H1491   1.083       .  S
C1488      N1492   1.438       .  S
N1490      H1493   1.046       .  S
N1490      H1494   1.046       .  S
N1492      H1495   1.046       .  S
N1492      H1496   1.046       .  S
C1501      C1502   1.408       .  A
C1501      C1506   1.399       .  A
C1502      C1503   1.408       .  A
C1502      N1507   1.436       .  S
C1503      C1504   1.403       .  A
C1503      H1508   1.084       .  S
C1504      C1509   1.477       .  S
C1504      C1505   1.411       .  A
C1505      C1506   1.402       .  A
C1505      N1510   1.439       .  S
C1506      H1511   1.084       .  S
N1507      H1527   1.049       .  S
N1507      H1528   1.042       .  S
C1509      C1512   1.404       .  A
C1509      C1516   1.405       .  A
N1510      H1525   1.046       .  S
N1510      H1526   1.045       .  S
C1512      C1513   1.414   1_554  A
C1512      H1517   1.083       .  S
C1513      C1514   1.415       .  A
C1513      N1518   1.436       .  S
C1514      C1515   1.401   1_556  A
C1515      C1516   1.392       .  A
C1515      H1519   1.084   1_554  S
C1516      N1520   1.433       .  S
N1518      H1521   1.046       .  S
N1518      H1522   1.043       .  S
N1520      H1523   1.045       .  S
N1520      H1524   1.046       .  S
C1529      C1530   1.420       .  A
C1529      C1534   1.408       .  A
C1530      C1531   1.404       .  A
C1530      N1535   1.439       .  S
C1531      C1532   1.398       .  A
C1531      H1536   1.084       .  S
C1532      C1537   1.489       .  S
C1532      C1533   1.413       .  A
C1533      C1534   1.415       .  A
C1533      N1538   1.437       .  S
C1534      H1539   1.083       .  S
N1535      H1555   1.045       .  S
N1535      H1556   1.046       .  S
C1537      C1540   1.405       .  A
C1537      C1544   1.406       .  A
N1538      H1553   1.046       .  S
N1538      H1554   1.044       .  S
C1540      C1541   1.414       .  A
C1540      H1545   1.084       .  S
C1541      C1542   1.417       .  A
C1541      N1546   1.437       .  S
C1542      C1543   1.408       .  A
C1543      C1544   1.403       .  A
C1543      H1547   1.084       .  S
C1544      N1548   1.433       .  S
N1546      H1549   1.046       .  S
N1546      H1550   1.045       .  S
N1548      H1551   1.046       .  S
N1548      H1552   1.045       .  S
C1557      C1558   1.410       .  A
C1557      C1562   1.404       .  A
C1558      C1559   1.402       .  A
C1558      N1563   1.432       .  S
C1559      C1560   1.399       .  A
C1559      H1564   1.084       .  S
C1560      C1565   1.475       .  S
C1560      C1561   1.410       .  A
C1561      C1562   1.406       .  A
C1561      N1566   1.438       .  S
C1562      H1567   1.084       .  S
N1563      H1583   1.046       .  S
N1563      H1584   1.046       .  S
C1565      C1568   1.402       .  A
C1565      C1572   1.406       .  A
N1566      H1581   1.046       .  S
N1566      H1582   1.045       .  S
C1568      C1569   1.407       .  A
C1568      H1573   1.084       .  S
C1569      C1570   1.413       .  A
C1569      N1574   1.438       .  S
C1570      C1571   1.405       .  A
C1571      C1572   1.402       .  A
C1571      H1575   1.084       .  S
C1572      N1576   1.438       .  S
N1574      H1577   1.046       .  S
N1574      H1578   1.046       .  S
N1576      H1579   1.046       .  S
N1576      H1580   1.045       .  S
C1585      C1586   1.409       .  A
C1585      C1590   1.402       .  A
C1586      C1587   1.409       .  A
C1586      N1591   1.436       .  S
C1587      C1588   1.405       .  A
C1587      H1592   1.084       .  S
C1588      C1593   1.480       .  S
C1588      C1589   1.410       .  A
C1589      C1590   1.402       .  A
C1589      N1594   1.439       .  S
C1590      H1595   1.084       .  S
N1591      H1611   1.046       .  S
N1591      H1612   1.046       .  S
C1593      C1596   1.406       .  A
C1593      C1600   1.410       .  A
N1594      H1609   1.046       .  S
N1594      H1610   1.046       .  S
C1596      C1597   1.411       .  A
C1596      H1601   1.083       .  S
C1597      C1598   1.410       .  A
C1597      N1602   1.437       .  S
C1598      C1599   1.401       .  A
C1599      C1600   1.398       .  A
C1599      H1603   1.084       .  S
C1600      N1604   1.439       .  S
N1602      H1605   1.046       .  S
N1602      H1606   1.046       .  S
N1604      H1607   1.046       .  S
N1604      H1608   1.046       .  S
C1613      C1614   1.421       .  A
C1613      C1618   1.411       .  A
C1614      C1615   1.410       .  A
C1614      N1619   1.438       .  S
C1615      C1616   1.401       .  A
C1615      H1620   1.084       .  S
C1616      C1621   1.484       .  S
C1616      C1617   1.406       .  A
C1617      C1618   1.407       .  A
C1617      N1622   1.438       .  S
C1618      H1623   1.083       .  S
N1619      H1639   1.046       .  S
N1619      H1640   1.046       .  S
C1621      C1624   1.399       .  A
C1621      C1628   1.408       .  A
N1622      H1637   1.045       .  S
N1622      H1638   1.046       .  S
C1624      C1625   1.405       .  A
C1624      H1629   1.084       .  S
C1625      C1626   1.418       .  A
C1625      N1630   1.438       .  S
C1626      C1627   1.409       .  A
C1627      C1628   1.411       .  A
C1627      H1631   1.083       .  S
C1628      N1632   1.437       .  S
N1630      H1633   1.046       .  S
N1630      H1634   1.046       .  S
N1632      H1635   1.046       .  S
N1632      H1636   1.046       .  S
C1641      C1642   1.423       .  A
C1641      C1646   1.409       .  A
C1642      C1643   1.405       .  A
C1642      N1647   1.438       .  S
C1643      C1644   1.399       .  A
C1643      H1648   1.084   1_554  S
C1644      C1649   1.486   1_554  S
C1644      C1645   1.408       .  A
C1645      C1646   1.409       .  A
C1645      N1650   1.437       .  S
C1646      H1651   1.083       .  S
N1647      H1667   1.043       .  S
N1647      H1668   1.046       .  S
C1649      C1652   1.400       .  A
C1649      C1656   1.408       .  A
N1650      H1665   1.045       .  S
N1650      H1666   1.046       .  S
C1652      C1653   1.409       .  A
C1652      H1657   1.084       .  S
C1653      C1654   1.420       .  A
C1653      N1658   1.438       .  S
C1654      C1655   1.410       .  A
C1655      C1656   1.408       .  A
C1655      H1659   1.083       .  S
C1656      N1660   1.438       .  S
N1658      H1661   1.046       .  S
N1658      H1662   1.046       .  S
N1660      H1663   1.046       .  S
N1660      H1664   1.046       .  S
C1669      C1670   1.419       .  A
C1669      C1674   1.411       .  A
C1670      C1671   1.407       .  A
C1670      N1675   1.438       .  S
C1671      C1672   1.399       .  A
C1671      H1676   1.084       .  S
C1672      C1677   1.477       .  S
C1672      C1673   1.405       .  A
C1673      C1674   1.403       .  A
C1673      N1678   1.438       .  S
C1674      H1679   1.083       .  S
N1675      H1695   1.046       .  S
N1675      H1696   1.046       .  S
C1677      C1680   1.399       .  A
C1677      C1684   1.405       .  A
N1678      H1693   1.046       .  S
N1678      H1694   1.046       .  S
C1680      C1681   1.404       .  A
C1680      H1685   1.084       .  S
C1681      C1682   1.418       .  A
C1681      N1686   1.438       .  S
C1682      C1683   1.408       .  A
C1683      C1684   1.406       .  A
C1683      H1687   1.083       .  S
C1684      N1688   1.437       .  S
N1686      H1689   1.046       .  S
N1686      H1690   1.045       .  S
N1688      H1691   1.046       .  S
N1688      H1692   1.046       .  S
