geometry optimzed in LAMMPS
_audit_creation_date              2020-12-01 
_audit_creation_method            'lammps2cif' 
_symmetry_space_group_name_H-M    'P1' 
_symmetry_Int_Tables_number       1 
_symmetry_cell_setting            triclinic 
loop_ 
_symmetry_equiv_pos_as_xyz 
  x,y,z 
_cell_length_a                    42.92664722 
_cell_length_b                    42.69838928678843 
_cell_length_c                    35.639823432327056 
_cell_angle_alpha                 90.3898982329195 
_cell_angle_beta                  90.034519481627 
_cell_angle_gamma                 120.79455084348193 
loop_ 
_atom_site_label 
_atom_site_type_symbol 
_atom_site_fract_x 
_atom_site_fract_y 
_atom_site_fract_z 
_atom_site_charge 
O1          O  0.53765573  0.79414979  0.20985893    -0.85600
O2          O  0.50892031  0.72010373  0.18905200    -0.82600
C3          C  0.53526246  0.71526492  0.19170912     0.97900
O4          O  0.55249365  0.72290749  0.22199411    -0.82700
O5          O  0.57406510  0.74647105  0.29407637    -0.85300
C6          C  0.58870773  0.77952321  0.30499329     1.02400
O7          O  0.57088364  0.79542365  0.30653698    -0.78100
O8          O  0.53387801  0.81857648  0.26321360    -0.78300
C9          C  0.54205197  0.82160807  0.22835549     1.02300
O10         O  0.46980225  0.77425875  0.24001563    -0.85600
O11         O  0.44892255  0.70206199  0.23383468    -0.82700
C12         C  0.44796754  0.67284142  0.24211074     0.97900
O13         O  0.47722374  0.67240578  0.24775591    -0.82700
O14         O  0.50046613  0.69379709  0.31738610    -0.85300
C15         C  0.49583848  0.70884010  0.34526458     1.02400
O16         O  0.50538990  0.74231381  0.34441563    -0.78100
O17         O  0.46719614  0.76341342  0.29946442    -0.78300
C18         C  0.45565090  0.77209741  0.27133674     1.02300
Cr19       Cr  0.49340526  0.74760144  0.22157568     1.93700
Cr20       Cr  0.52540436  0.71198593  0.26984839     1.93200
Cr21       Cr  0.51905574  0.77727857  0.30066631     1.39100
O22         O  0.51310241  0.74561734  0.26456399    -1.23300
O23         O  0.81890936  0.93079286  0.46001585    -0.85600
O24         O  0.79562655  0.85773363  0.44204172    -0.82600
C25         C  0.79145234  0.83035650  0.42353646     0.97900
O26         O  0.80044917  0.83345508  0.38881000    -0.82700
O27         O  0.76089367  0.85236900  0.34347254    -0.85300
C28         C  0.74194533  0.86717503  0.34357927     1.02400
O29         O  0.75521479  0.90020138  0.35360480    -0.78100
O30         O  0.77272167  0.92157903  0.42680205    -0.78300
C31         C  0.79015296  0.93150291  0.45702292     1.02300
O32         O  0.88000954  0.95214331  0.41430341    -0.85600
O33         O  0.86384175  0.88075169  0.41199564    -0.82700
C34         C  0.87944644  0.88520210  0.38120733     0.97900
O35         O  0.86674941  0.89175964  0.35253692    -0.82700
O36         O  0.82592633  0.90869572  0.30683590    -0.85300
C37         C  0.83441606  0.94190642  0.30616673     1.02400
O38         O  0.82816301  0.95615496  0.33369844    -0.78100
O39         O  0.84650602  0.97702858  0.40427244    -0.78300
C40         C  0.87726655  0.97942744  0.40628699     1.02300
Cr41       Cr  0.83770124  0.90533355  0.42895853     1.93700
Cr42       Cr  0.81356884  0.87389841  0.35046648     1.93200
Cr43       Cr  0.80145596  0.93589415  0.37999984     1.39100
O44         O  0.81673390  0.90467054  0.38598754    -1.23300
O45         O  0.20835416  0.70524040  0.22217654    -0.85600
O46         O  0.25597128  0.77726823  0.20448456    -0.82600
C47         C  0.28042908  0.81029340  0.20774943     0.97900
O48         O  0.29313293  0.82282927  0.23988671    -0.82700
O49         O  0.23298991  0.80852133  0.28385979    -0.85300
C50         C  0.20545058  0.79167192  0.30473957     1.02400
O51         O  0.19973966  0.76308783  0.32210122    -0.78100
O52         O  0.17464947  0.70783616  0.26771839    -0.78300
C53         C  0.17775294  0.69605202  0.23592578     1.02300
O54         O  0.26398231  0.70191936  0.26071004    -0.85600
O55         O  0.31285450  0.77286218  0.24261063    -0.82700
C56         C  0.33058300  0.78654905  0.27268576     0.97900
O57         O  0.31798583  0.79689364  0.29880605    -0.82700
O58         O  0.26464513  0.79338323  0.34498499    -0.85300
C59         C  0.26953947  0.77014912  0.36088712     1.02400
O60         O  0.25014293  0.73759827  0.34960462    -0.78100
O61         O  0.21660982  0.68118398  0.29714345    -0.78300
C62         C  0.23868074  0.67607398  0.27864110     1.02300
Cr63       Cr  0.25934268  0.74066315  0.23565957     1.93700
Cr64       Cr  0.27517578  0.80222305  0.29080068     1.93200
Cr65       Cr  0.21315346  0.72520939  0.30765928     1.39100
O66         O  0.24847603  0.75560866  0.27723646    -1.23300
O67         O  0.05387450  0.86284657  0.45700002    -0.85600
O68         O  0.12783538  0.91401946  0.44354622    -0.82600
C69         C  0.15547213  0.93982704  0.42768209     0.97900
O70         O  0.15375543  0.94694919  0.39320210    -0.82700
O71         O  0.13376497  0.88921431  0.34349788    -0.85300
C72         C  0.11665921  0.85489248  0.33993754     1.02400
O73         O  0.08297463  0.83572850  0.34681073    -0.78100
O74         O  0.05782245  0.82495022  0.41928293    -0.78300
C75         C  0.04945695  0.83185786  0.45073163     1.02300
O76         O  0.03576202  0.90788511  0.41634047    -0.85600
O77         O  0.10726334  0.96243916  0.41840642    -0.82700
C78         C  0.10482051  0.97654117  0.38878986     0.97900
O79         O  0.09952583  0.95951398  0.35811901    -0.82700
O80         O  0.08264591  0.90393290  0.30652402    -0.85300
C81         C  0.04897759  0.88120266  0.30331813     1.02400
O82         O  0.03176201  0.85929093  0.32901803    -0.78100
O83         O  0.00854558  0.84998412  0.39934242    -0.78300
C84         C  0.00784180  0.87900992  0.40505683     1.02300
Cr85       Cr  0.08117801  0.90990949  0.43040794     1.93700
Cr86       Cr  0.11484447  0.92230409  0.35274738     1.93200
Cr87       Cr  0.04848180  0.84633022  0.37430966     1.39100
O88         O  0.08193081  0.89231368  0.38548611    -1.23300
O89         O  0.27515005  0.47702766  0.21125033    -0.85600
O90         O  0.20426204  0.45208242  0.19217070    -0.82600
C91         C  0.17195026  0.44465520  0.19414230     0.97900
O92         O  0.15995392  0.44727736  0.22557270    -0.82700
O93         O  0.17345004  0.40347958  0.27471865    -0.85300
C94         C  0.19072571  0.39468071  0.29711989     1.02400
O95         O  0.21921543  0.41913251  0.31396765    -0.78100
O96         O  0.27267121  0.44492966  0.26088276    -0.78300
C97         C  0.28304199  0.45587460  0.22785209     1.02300
O98         O  0.28039629  0.54058409  0.24372755    -0.85600
O99         O  0.21089427  0.51777760  0.22535585    -0.82700
C100        C  0.20158245  0.52610928  0.25587562     0.97900
O101        O  0.18800630  0.50291949  0.28186647    -0.82700
O102        O  0.18886012  0.45465242  0.33212588    -0.85300
C103        C  0.21299181  0.48328115  0.34777751     1.02400
O104        O  0.24504818  0.49676285  0.33597685    -0.78100
O105        O  0.30129152  0.51765130  0.28428934    -0.78300
C106        C  0.30595957  0.54371670  0.26377715     1.02300
Cr107      Cr  0.24145067  0.49484935  0.22129346     1.93700
Cr108      Cr  0.18053125  0.45308479  0.27736431     1.93200
Cr109      Cr  0.25694617  0.46979087  0.29697436     1.39100
O110        O  0.22670755  0.47212555  0.26454304    -1.23300
O111        O  0.12552017  0.17837327  0.46145450    -0.85600
O112        O  0.07293347  0.19698564  0.44466675    -0.82600
C113        C  0.04743746  0.19745177  0.42725711     0.97900
O114        O  0.04095942  0.18709848  0.39304569    -0.82700
O115        O  0.10090450  0.22812503  0.35038300    -0.85300
C116        C  0.13421184  0.24484499  0.34292238     1.02400
O117        O  0.15288293  0.22965062  0.34767808    -0.78100
O118        O  0.16322067  0.21937598  0.42253532    -0.78300
C119        C  0.15634501  0.20549625  0.45465471     1.02300
O120        O  0.08216026  0.11156322  0.42223943    -0.85600
O121        O  0.02742893  0.12556999  0.41728144    -0.82700
C122        C  0.01433806  0.10983606  0.38640901     0.97900
O123        O  0.03256526  0.12220155  0.35676633    -0.82700
O124        O  0.09092048  0.16563072  0.30943143    -0.85300
C125        C  0.11100086  0.15192709  0.30788027     1.02400
O126        O  0.12866168  0.15236887  0.33594505    -0.78100
O127        O  0.13998612  0.14344459  0.40735235    -0.78300
C128        C  0.11127261  0.11303945  0.41329255     1.02300
Cr129      Cr  0.07878696  0.15487756  0.43340232     1.93700
Cr130      Cr  0.06869390  0.17558337  0.35480257     1.93200
Cr131      Cr  0.14271080  0.18563741  0.37899459     1.39100
O132        O  0.09714111  0.17269788  0.38894070    -1.23300
O133        O  0.60350841  0.14300435  0.34996365    -0.85600
O134        O  0.53114749  0.11490671  0.37438187    -0.82600
C135        C  0.50510873  0.11271472  0.39325664     0.97900
O136        O  0.50992756  0.12272142  0.42764351    -0.82700
O137        O  0.53643789  0.08748187  0.46958127    -0.85300
C138        C  0.55405113  0.07126769  0.47042071     1.02400
O139        O  0.58704406  0.08700483  0.45985142    -0.78100
O140        O  0.60652691  0.10394219  0.38582055    -0.78300
C141        C  0.61061697  0.11817111  0.35416813     1.02300
O142        O  0.62306726  0.20675751  0.39088534    -0.85600
O143        O  0.55244336  0.18516904  0.40123224    -0.82700
C144        C  0.55610531  0.20140068  0.43180980     0.97900
O145        O  0.56552776  0.19116387  0.46057928    -0.82700
O146        O  0.58887792  0.15401540  0.50602154    -0.85300
C147        C  0.62272069  0.16630956  0.50626330     1.02400
O148        O  0.63841731  0.16411135  0.47772377    -0.78100
O149        O  0.65516906  0.18154572  0.40621465    -0.78300
C150        C  0.65296565  0.20975534  0.39956145     1.02300
Cr151      Cr  0.57786819  0.16058096  0.38246438     1.93700
Cr152      Cr  0.55284118  0.13913923  0.46311844     1.93200
Cr153      Cr  0.61853251  0.13459292  0.43193124     1.39100
O154        O  0.58316721  0.14435430  0.42626755    -1.23300
O155        O  0.45832330  0.83841307  0.60464345    -0.85600
O156        O  0.41341244  0.86463466  0.62078366    -0.82600
C157        C  0.38840273  0.87161343  0.61848715     0.97900
O158        O  0.37439910  0.86931213  0.58668763    -0.82700
O159        O  0.43408787  0.91185479  0.53779084    -0.85300
C160        C  0.46032512  0.92012584  0.51554128     1.02400
O161        O  0.46329772  0.89494290  0.49942777    -0.78100
O162        O  0.48954195  0.86878683  0.55463690    -0.78300
C163        C  0.48811192  0.85801263  0.58801151     1.02300
O164        O  0.39937231  0.77460810  0.57284472    -0.85600
O165        O  0.35317440  0.79887761  0.58810654    -0.82700
C166        C  0.33542459  0.79075961  0.55753317     0.97900
O167        O  0.34613545  0.81338875  0.53102353    -0.82700
O168        O  0.39697845  0.85977995  0.48067539    -0.85300
C169        C  0.39158537  0.83068357  0.46575436     1.02400
O170        O  0.40882506  0.81655491  0.47900310    -0.78100
O171        O  0.44349917  0.79661685  0.53214096    -0.78300
C172        C  0.42208815  0.77128906  0.55357833     1.02300
Cr173      Cr  0.40685596  0.82109583  0.59336636     1.93700
Cr174      Cr  0.38994239  0.86262832  0.53535707     1.93200
Cr175      Cr  0.44848441  0.84420761  0.51797268     1.39100
O176        O  0.41591150  0.84298997  0.54958341    -1.23300
O177        O  0.40348921  0.52433601  0.60764088    -0.85600
O178        O  0.45397823  0.59701680  0.63043358    -0.82600
C179        C  0.48530544  0.60244660  0.62580490     0.97900
O180        O  0.49401803  0.59627364  0.59426812    -0.82700
O181        O  0.48758629  0.57297349  0.52105069    -0.85300
C182        C  0.46777151  0.53983322  0.51048260     1.02400
O183        O  0.43360515  0.52420676  0.51088204    -0.78100
O184        O  0.37265031  0.50282607  0.55493193    -0.78300
C185        C  0.37749066  0.49861560  0.58948448     1.02300
O186        O  0.35875637  0.54977155  0.58132046    -0.85600
O187        O  0.41331936  0.61937773  0.58968980    -0.82700
C188        C  0.44160534  0.64820345  0.57976507     0.97900
O189        O  0.47079585  0.64820931  0.57252263    -0.82700
O190        O  0.46850366  0.62759278  0.50206674    -0.85300
C191        C  0.44843304  0.61293189  0.47419431     1.02400
O192        O  0.42412053  0.57938949  0.47472275    -0.78100
O193        O  0.36553039  0.56071640  0.52148677    -0.78300
C194        C  0.34734071  0.55506629  0.55105765     1.02300
Cr195      Cr  0.40950490  0.57260692  0.59881234     1.93700
Cr196      Cr  0.47628954  0.60807066  0.54802202     1.93200
Cr197      Cr  0.40162635  0.54431896  0.51830866     1.39100
O198        O  0.42961646  0.57496755  0.55461608    -1.23300
O199        O  0.54443151  0.40179239  0.36693839    -0.85600
O200        O  0.61541101  0.44891523  0.38990207    -0.82600
C201        C  0.62424078  0.47866205  0.40639214     0.97900
O202        O  0.61100631  0.47965375  0.43789345    -0.82700
O203        O  0.55453726  0.45095353  0.48981994    -0.85300
C204        C  0.52694143  0.44701237  0.47203125     1.02400
O205        O  0.51023678  0.42058980  0.44899788    -0.78100
O206        O  0.49782120  0.36290016  0.39915230    -0.78300
C207        C  0.51160558  0.37677769  0.36791527     1.02300
O208        O  0.54771856  0.34268309  0.40122323    -0.85600
O209        O  0.61737913  0.39046844  0.42377225    -0.82700
C210        C  0.64224196  0.41466713  0.44399074     0.97900
O211        O  0.63630844  0.43554506  0.46391768    -0.82700
O212        O  0.57870850  0.39931673  0.51288821    -0.85300
C213        C  0.54625116  0.37906402  0.52303791     1.02400
O214        O  0.52254499  0.38314584  0.50702728    -0.78100
O215        O  0.52187233  0.33411897  0.45641235    -0.78300
C216        C  0.53416239  0.32349215  0.43024464     1.02300
Cr217      Cr  0.57973088  0.39678192  0.39871379     1.93700
Cr218      Cr  0.59236820  0.43850448  0.47421273     1.93200
Cr219      Cr  0.51636592  0.37741950  0.45180690     1.39100
O220        O  0.56319815  0.40507576  0.44083525    -1.23300
O221        O  0.13067466  0.58769302  0.60368050    -0.85600
O222        O  0.15164575  0.53703792  0.62234007    -0.82600
C223        C  0.12357724  0.50625961  0.61978700     0.97900
O224        O  0.10653282  0.49656426  0.58925359    -0.82700
O225        O  0.08538903  0.50291362  0.51795197    -0.85300
C226        C  0.07426802  0.52385473  0.50707910     1.02400
O227        O  0.09516399  0.55795459  0.50620717    -0.78100
O228        O  0.13744790  0.61811596  0.55151330    -0.78300
C229        C  0.12932279  0.61273998  0.58629771     1.02300
O230        O  0.20021288  0.63215877  0.57418362    -0.85600
O231        O  0.21236665  0.57534181  0.57765083    -0.82700
C232        C  0.20974887  0.54564176  0.56760716     0.97900
O233        O  0.17912053  0.51715790  0.56037087    -0.82700
O234        O  0.15559034  0.51840029  0.49168270    -0.85300
C235        C  0.16317796  0.54025550  0.46530441     1.02400
O236        O  0.15867525  0.56722310  0.46803105    -0.78100
O237        O  0.20101159  0.62539460  0.51393744    -0.78300
C238        C  0.21505352  0.64407000  0.54312470     1.02300
Cr239      Cr  0.17141395  0.58096761  0.59079466     1.93700
Cr240      Cr  0.13285407  0.51296285  0.54049545     1.93200
Cr241      Cr  0.14789737  0.58936649  0.51272216     1.39100
O242        O  0.15023518  0.56060103  0.54746160    -1.23300
O243        O  0.86853277  0.45951964  0.36143842    -0.85600
O244        O  0.84140858  0.38730444  0.37628798    -0.82600
C245        C  0.86054685  0.37703538  0.39297338     0.97900
O246        O  0.87163841  0.38687084  0.42641183    -0.82700
O247        O  0.89792806  0.44045760  0.48243062    -0.85300
C248        C  0.92301782  0.46943840  0.46734080     1.02400
O249        O  0.91508303  0.48802232  0.44573389    -0.78100
O250        O  0.87282798  0.50352376  0.39579328    -0.78300
C251        C  0.87627430  0.49206270  0.36424355     1.02300
O252        O  0.80291620  0.45297372  0.39270476    -0.85600
O253        O  0.77831574  0.38150164  0.40723470    -0.82700
C254        C  0.77514037  0.35560497  0.42684615     0.97900
O255        O  0.80030822  0.36040248  0.44877139    -0.82700
O256        O  0.82128556  0.41513237  0.50294027    -0.85300
C257        C  0.83446880  0.44686585  0.51654358     1.02400
O258        O  0.86271080  0.47203539  0.50175269    -0.78100
O259        O  0.81603870  0.47368598  0.45034353    -0.78300
C260        C  0.79336125  0.46007604  0.42370595     1.02300
Cr261      Cr  0.82477600  0.42163674  0.38774706     1.93700
Cr262      Cr  0.84783562  0.40354889  0.46335019     1.93200
Cr263      Cr  0.86563749  0.48124836  0.44694415     1.39100
O264        O  0.84649048  0.43500902  0.43208417    -1.23300
O265        O  0.48041552  0.26383067  0.79359265    -0.85600
O266        O  0.45812094  0.19150556  0.77632101    -0.82600
C267        C  0.45640089  0.16429814  0.76010053     0.97900
O268        O  0.46568008  0.16646153  0.72574723    -0.82700
O269        O  0.42392495  0.18499770  0.68298407    -0.85300
C270        C  0.40732389  0.20201483  0.67858606     1.02400
O271        O  0.42357208  0.23643150  0.68314210    -0.78100
O272        O  0.43847443  0.26012181  0.75649255    -0.78300
C273        C  0.45350998  0.26743756  0.78813407     1.02300
O274        O  0.54399083  0.28532960  0.75282773    -0.85600
O275        O  0.52846463  0.21547005  0.74770462    -0.82700
C276        C  0.54354185  0.21804213  0.71667603     0.97900
O277        O  0.52968756  0.22215146  0.68718898    -0.82700
O278        O  0.48637534  0.23735048  0.64069842    -0.85300
C279        C  0.49952374  0.27153900  0.63883624     1.02400
O280        O  0.49928523  0.28932440  0.66662816    -0.78100
O281        O  0.51391310  0.31234915  0.73677099    -0.78300
C282        C  0.54363338  0.31353968  0.74339277     1.02300
Cr283      Cr  0.50087396  0.23884578  0.76445015     1.93700
Cr284      Cr  0.47667901  0.20539065  0.68652735     1.93200
Cr285      Cr  0.46940429  0.27152745  0.71136998     1.39100
O286        O  0.48193442  0.23856739  0.72044574    -1.23300
O287        O  0.20220071  0.12464576  0.54311951    -0.85600
O288        O  0.17886604  0.05092625  0.52768951    -0.82600
C289        C  0.20482587  0.04593635  0.53409726     0.97900
O290        O  0.22027859  0.05451556  0.56554299    -0.82700
O291        O  0.23663919  0.08086099  0.63791804    -0.85300
C292        C  0.25311582  0.11540962  0.64164351     1.02400
O293        O  0.23653627  0.13240570  0.63729226    -0.78100
O294        O  0.19563367  0.15051906  0.59368185    -0.78300
C295        C  0.20489624  0.15238234  0.55935150     1.02300
O296        O  0.13250994  0.10217718  0.57183363    -0.85600
O297        O  0.11530781  0.03109308  0.56824560    -0.82700
C298        C  0.11553682  0.00306968  0.57887416     0.97900
O299        O  0.14500307  0.00424611  0.58676809    -0.82700
O300        O  0.16026255  0.02877282  0.65587541    -0.85300
C301        C  0.15972738  0.04700245  0.68307926     1.02400
O302        O  0.17375674  0.08126161  0.68049567    -0.78100
O303        O  0.13125933  0.09535217  0.63253536    -0.78300
C304        C  0.11790185  0.09990260  0.60304326     1.02300
Cr305      Cr  0.15917479  0.07745878  0.55596720     1.93700
Cr306      Cr  0.19006985  0.04520122  0.61083477     1.93200
Cr307      Cr  0.18395921  0.11218674  0.63363365     1.39100
O308        O  0.17825484  0.07838329  0.60034616    -1.23300
O309        O  0.73980377  0.19319174  0.78257651    -0.85600
O310        O  0.79189993  0.26535666  0.77176546    -0.82600
C311        C  0.82168632  0.27691400  0.75488158     0.97900
O312        O  0.82303259  0.26968525  0.72058727    -0.82700
O313        O  0.79477106  0.21710456  0.66466491    -0.85300
C314        C  0.78771907  0.18699859  0.67955146     1.02400
O315        O  0.75943652  0.16878348  0.69931877    -0.78100
O316        O  0.69923504  0.15385229  0.74474729    -0.78300
C317        C  0.71218057  0.16224615  0.77735034     1.02300
O318        O  0.68606553  0.20770543  0.75008927    -0.85600
O319        O  0.73897676  0.27818809  0.74100955    -0.82700
C320        C  0.76212588  0.30428424  0.72168485     0.97900
O321        O  0.78134662  0.29946927  0.69817700    -0.82700
O322        O  0.74634175  0.24622850  0.64204395    -0.85300
C323        C  0.72709750  0.21479206  0.62785454     1.02400
O324        O  0.72985230  0.18966292  0.64211888    -0.78100
O325        O  0.67876113  0.18837319  0.69147114    -0.78300
C326        C  0.66817947  0.19891279  0.71946407     1.02300
Cr327      Cr  0.74000310  0.23494918  0.75788102     1.93700
Cr328      Cr  0.78332808  0.25524923  0.68295792     1.93200
Cr329      Cr  0.71910431  0.17832431  0.69580098     1.39100
O330        O  0.74831801  0.22342041  0.71289496    -1.23300
O331        O  0.86672898  0.06270296  0.54349624    -0.85600
O332        O  0.93951159  0.11432821  0.52552993    -0.82600
C333        C  0.94179195  0.14460764  0.52967260     0.97900
O334        O  0.93263080  0.15200916  0.56027941    -0.82700
O335        O  0.91013154  0.14590157  0.63300252    -0.85300
C336        C  0.87736593  0.12526580  0.64267715     1.02400
O337        O  0.86296690  0.09111481  0.64238379    -0.78100
O338        O  0.84329867  0.03221504  0.59595955    -0.78300
C339        C  0.84010250  0.03767816  0.56125910     1.02300
O340        O  0.89062546  0.01761430  0.57102936    -0.85600
O341        O  0.96098262  0.07409309  0.56894145    -0.82700
C342        C  0.98842761  0.10405491  0.57880542     0.97900
O343        O  0.98653073  0.13271325  0.58288467    -0.82700
O344        O  0.96497259  0.12892347  0.65323396    -0.85300
C345        C  0.95135012  0.10709580  0.67981255     1.02400
O346        O  0.91841982  0.08148595  0.67850626    -0.78100
O347        O  0.89955499  0.02326491  0.63121657    -0.78300
C348        C  0.89429875  0.00529557  0.60138419     1.02300
Cr349      Cr  0.91437602  0.06910196  0.55556032     1.93700
Cr350      Cr  0.94561264  0.13597839  0.60683011     1.93200
Cr351      Cr  0.88354034  0.05971155  0.63444880     1.39100
O352        O  0.91430506  0.08864313  0.59948249    -1.23300
O353        O  0.79501260  0.51220397  0.79838354    -0.85600
O354        O  0.73966374  0.52782345  0.78361968    -0.82600
C355        C  0.71288684  0.52670234  0.76730378     0.97900
O356        O  0.70629716  0.51689826  0.73301260    -0.82700
O357        O  0.76477178  0.56143535  0.68969264    -0.85300
C358        C  0.79831181  0.58024373  0.68374210     1.02400
O359        O  0.81833093  0.56632298  0.68698628    -0.78100
O360        O  0.83165576  0.55332477  0.75912736    -0.78300
C361        C  0.82559814  0.53927440  0.79106438     1.02300
O362        O  0.75390366  0.44594909  0.75945046    -0.85600
O363        O  0.69682169  0.45594367  0.75558916    -0.82700
C364        C  0.68406580  0.44039477  0.72457957     0.97900
O365        O  0.70050914  0.45465911  0.69443502    -0.82700
O366        O  0.75670345  0.50062040  0.64584284    -0.85300
C367        C  0.77891253  0.48957384  0.64223299     1.02400
O368        O  0.79798757  0.49087274  0.66927303    -0.78100
O369        O  0.80992811  0.47806416  0.73843424    -0.78300
C370        C  0.78239399  0.44767064  0.74755417     1.02300
Cr371      Cr  0.74808213  0.48756240  0.77089742     1.93700
Cr372      Cr  0.73472547  0.50831311  0.69313978     1.93200
Cr373      Cr  0.81072332  0.52131139  0.71437799     1.39100
O374        O  0.76486736  0.50613077  0.72596690    -1.23300
O375        O  0.91950292  0.78325030  0.53858869    -0.85600
O376        O  0.86649050  0.80196626  0.52317915    -0.82600
C377        C  0.83549652  0.77510511  0.52904581     0.97900
O378        O  0.82786501  0.76042168  0.56075912    -0.82700
O379        O  0.83991735  0.74537223  0.63299672    -0.85300
C380        C  0.86022110  0.73218866  0.63901307     1.02400
O381        O  0.89414480  0.75151941  0.63554890    -0.78100
O382        O  0.95208892  0.79308658  0.58977518    -0.78300
C383        C  0.94540995  0.78304775  0.55545962     1.02300
O384        O  0.96430107  0.85461530  0.56590682    -0.85600
O385        O  0.90820546  0.86656524  0.56381147    -0.82700
C386        C  0.88004100  0.86566979  0.57552639     0.97900
O387        O  0.85157416  0.83555681  0.58343287    -0.82700
O388        O  0.86068734  0.82046582  0.65252060    -0.85300
C389        C  0.88200488  0.82541515  0.67882014     1.02400
O390        O  0.90494045  0.81528905  0.67574890    -0.78100
O391        O  0.96044363  0.85818160  0.62637833    -0.78300
C392        C  0.97709737  0.87164694  0.59613958     1.02300
Cr393      Cr  0.91268541  0.82449155  0.55134804     1.93700
Cr394      Cr  0.84890251  0.79119353  0.60662199     1.93200
Cr395      Cr  0.92519118  0.80443839  0.62935082     1.39100
O396        O  0.89504312  0.80593546  0.59600579    -1.23300
O397        O  0.53857225  0.78638586  0.69790554    -0.85600
O398        O  0.52035733  0.71622692  0.71336163    -0.82600
C399        C  0.53659060  0.70394557  0.73218333     0.97900
O400        O  0.54360669  0.71118162  0.76686937    -0.82700
O401        O  0.57165579  0.76926475  0.81808496    -0.85300
C402        C  0.59494118  0.79900071  0.80243727     1.02400
O403        O  0.58476987  0.81655234  0.78197581    -0.78100
O404        O  0.53820919  0.82728008  0.73334780    -0.78300
C405        C  0.54276981  0.81761987  0.70154193     1.02300
O406        O  0.46952042  0.77046705  0.72936768    -0.85600
O407        O  0.45312135  0.70056653  0.74264662    -0.82700
C408        C  0.44903695  0.67828798  0.76801900     0.97900
O409        O  0.47313684  0.68624917  0.79248748    -0.82700
O410        O  0.49441255  0.74223727  0.84213758    -0.85300
C411        C  0.50582487  0.77417615  0.85391083     1.02400
O412        O  0.53344636  0.79916872  0.83853633    -0.78100
O413        O  0.48257170  0.79430253  0.78632451    -0.78300
C414        C  0.46059244  0.78067754  0.75888497     1.02300
Cr415      Cr  0.49745665  0.74495215  0.72466234     1.93700
Cr416      Cr  0.52088122  0.73023887  0.80271261     1.93200
Cr417      Cr  0.53376843  0.80575207  0.78369369     1.39100
O418        O  0.51770345  0.75969877  0.76970096    -1.23300
O419        O  0.79172934  0.91391531  0.94509472    -0.85600
O420        O  0.81479255  0.86472348  0.96606162    -0.82600
C421        C  0.78809530  0.83350021  0.96050218     0.97900
O422        O  0.77326025  0.82548229  0.92889378    -0.82700
O423        O  0.75719095  0.83352276  0.85650208    -0.85300
C424        C  0.74617693  0.85416240  0.84408443     1.02400
O425        O  0.76691473  0.88835453  0.84360770    -0.78100
O426        O  0.80264727  0.94585670  0.89316379    -0.78300
C427        C  0.79115695  0.93913577  0.92703456     1.02300
O428        O  0.86265638  0.96197759  0.92272456    -0.85600
O429        O  0.87866042  0.90765299  0.92721973    -0.82700
C430        C  0.87915747  0.87974999  0.91595049     0.97900
O431        O  0.84971088  0.85030060  0.90690224    -0.82700
O432        O  0.83004536  0.85161541  0.83668737    -0.85300
C433        C  0.83966728  0.87402387  0.81061188     1.02400
O434        O  0.83456454  0.90069599  0.81274742    -0.78100
O435        O  0.87147286  0.95637235  0.86392396    -0.78300
C436        C  0.88142267  0.97467825  0.89391466     1.02300
Cr437      Cr  0.83495616  0.90996446  0.93656767     1.93700
Cr438      Cr  0.80348012  0.84414974  0.88307550     1.93200
Cr439      Cr  0.81869155  0.92026779  0.85602500     1.39100
O440        O  0.81833876  0.89086091  0.89134004    -1.23300
O441        O  0.24987004  0.45319345  0.69800825    -0.85600
O442        O  0.20095534  0.47557045  0.71249104    -0.82600
C443        C  0.17145627  0.45830782  0.73007813     0.97900
O444        O  0.17029213  0.44921453  0.76413595    -0.82700
O445        O  0.19753110  0.42159490  0.81720377    -0.85300
C446        C  0.20290528  0.39789059  0.80139360     1.02400
O447        O  0.23065445  0.40767060  0.78090529    -0.78100
O448        O  0.29008996  0.45301428  0.73424089    -0.78300
C449        C  0.27610024  0.44816437  0.70222678     1.02300
O450        O  0.30639660  0.52119434  0.73040759    -0.85600
O451        O  0.25640875  0.54122525  0.74386571    -0.82700
C452        C  0.23613275  0.54470682  0.76696056     0.97900
O453        O  0.21706740  0.51996363  0.78984147    -0.82700
O454        O  0.24991275  0.49912503  0.84152920    -0.85300
C455        C  0.26724275  0.48531752  0.85501804     1.02400
O456        O  0.26427490  0.45796344  0.83871199    -0.78100
O457        O  0.31471224  0.50936420  0.78831974    -0.78300
C458        C  0.32496709  0.53077455  0.76042464     1.02300
Cr459      Cr  0.25259501  0.49573130  0.72477721     1.93700
Cr460      Cr  0.21151115  0.47238540  0.80119017     1.93200
Cr461      Cr  0.27274035  0.45811816  0.78423795     1.39100
O462        O  0.24464084  0.47503977  0.76936159    -1.23300
O463        O  0.13247620  0.20309429  0.94433721    -0.85600
O464        O  0.06024892  0.17953933  0.96527182    -0.82600
C465        C  0.05449462  0.20513545  0.95915706     0.97900
O466        O  0.06071319  0.21924998  0.92716111    -0.82700
O467        O  0.07981950  0.23086658  0.85190260    -0.85300
C468        C  0.11349789  0.24651430  0.84431182     1.02400
O469        O  0.13101867  0.23067539  0.84942973    -0.78100
O470        O  0.15390772  0.19341834  0.89220804    -0.78300
C471        C  0.15839759  0.20409065  0.92632893     1.02300
O472        O  0.10843873  0.13175413  0.91859576    -0.85600
O473        O  0.03873548  0.11383474  0.92602705    -0.82700
C474        C  0.01002392  0.11333713  0.91746650     0.97900
O475        O  0.00991946  0.14263860  0.91178026    -0.82700
O476        O  0.02738618  0.15333156  0.83973237    -0.85300
C477        C  0.04335093  0.15115680  0.81141241     1.02400
O478        O  0.07750832  0.16523339  0.81173618    -0.78100
O479        O  0.09708013  0.12631999  0.85871877    -0.78300
C480        C  0.10524088  0.11561551  0.88795820     1.02300
Cr481      Cr  0.08484863  0.15881082  0.93552641     1.93700
Cr482      Cr  0.04755544  0.18612148  0.88309075     1.93200
Cr483      Cr  0.11235008  0.17878076  0.85558536     1.39100
O484        O  0.08173582  0.17517790  0.89113968    -1.23300
O485        O  0.20991080  0.73971318  0.69810506    -0.85600
O486        O  0.28128132  0.78939130  0.71490105    -0.82600
C487        C  0.29280376  0.81878505  0.73299356     0.97900
O488        O  0.28403172  0.81935663  0.76694436    -0.82700
O489        O  0.22747212  0.78952984  0.81944241    -0.85300
C490        C  0.19780273  0.78325474  0.80417693     1.02400
O491        O  0.18058105  0.75628315  0.78197038    -0.78100
O492        O  0.16769736  0.69856153  0.73275196    -0.78300
C493        C  0.17811989  0.71305355  0.70113205     1.02300
O494        O  0.22004349  0.68313808  0.72924880    -0.85600
O495        O  0.29071588  0.73412586  0.74492783    -0.82700
C496        C  0.31443248  0.75466480  0.76859896     0.97900
O497        O  0.30850440  0.77357487  0.79148671    -0.82700
O498        O  0.25308990  0.73815571  0.84193795    -0.85300
C499        C  0.22145321  0.71955020  0.85483041     1.02400
O500        O  0.19694166  0.72200801  0.83862296    -0.78100
O501        O  0.19826905  0.67394948  0.78655639    -0.78300
C502        C  0.21036631  0.66449456  0.75902578     1.02300
Cr503      Cr  0.24912877  0.73729093  0.72539871     1.93700
Cr504      Cr  0.26539535  0.77737954  0.80286855     1.93200
Cr505      Cr  0.18929500  0.71505920  0.78364959     1.39100
O506        O  0.23518213  0.74426321  0.76992672    -1.23300
O507        O  0.05829300  0.87142691  0.93828440    -0.85600
O508        O  0.12995875  0.92096500  0.95454434    -0.82600
C509        C  0.16196837  0.94714587  0.95110213     0.97900
O510        O  0.17268068  0.96075790  0.91909091    -0.82700
O511        O  0.15794412  0.90327080  0.86873594    -0.85300
C512        C  0.14058738  0.87674163  0.84617414     1.02400
O513        O  0.11098559  0.87105470  0.83135194    -0.78100
O514        O  0.05885869  0.84100697  0.88795590    -0.78300
C515        C  0.04903972  0.84178631  0.92137108     1.02300
O516        O  0.04980525  0.92758370  0.90777594    -0.85600
O517        O  0.12056611  0.97803152  0.92361549    -0.82700
C518        C  0.13145119  0.99681971  0.89398184     0.97900
O519        O  0.14235012  0.98657197  0.86630735    -0.82700
O520        O  0.13925320  0.93845761  0.81372972    -0.85300
C521        C  0.11368501  0.94125758  0.80046839     1.02400
O522        O  0.08226717  0.92030067  0.81322872    -0.78100
O523        O  0.02855330  0.88267403  0.86717046    -0.78300
C524        C  0.02362856  0.90322883  0.88889158     1.02300
Cr525      Cr  0.09090583  0.92375547  0.92759144     1.93700
Cr526      Cr  0.14984102  0.94483764  0.86830717     1.93200
Cr527      Cr  0.07299893  0.88168580  0.85166790     1.39100
O528        O  0.10422058  0.91599238  0.88319470    -1.23300
O529        O  0.53299261  0.39208681  0.88295919    -0.85600
O530        O  0.60562396  0.44465937  0.86952930    -0.82600
C531        C  0.60907873  0.47553226  0.87395393     0.97900
O532        O  0.60026695  0.48355390  0.90453900    -0.82700
O533        O  0.57393898  0.47521808  0.97682294    -0.85300
C534        C  0.53960111  0.45589631  0.98001902     1.02400
O535        O  0.52320015  0.42185460  0.97511479    -0.78100
O536        O  0.50656054  0.36075212  0.93376152    -0.78300
C537        C  0.50527366  0.36684571  0.89896579     1.02300
O538        O  0.55661466  0.34775052  0.91603761    -0.85600
O539        O  0.62621393  0.40382891  0.91389975    -0.82700
C540        C  0.65388685  0.43399373  0.92221550     0.97900
O541        O  0.65178920  0.46228835  0.92806280    -0.82700
O542        O  0.62621705  0.45349363  0.99756699    -0.85300
C543        C  0.60778890  0.43447458  0.02452935     1.02400
O544        O  0.57376695  0.41343628  0.02145754    -0.78100
O545        O  0.56073223  0.35444667  0.97677129    -0.78300
C546        C  0.55859884  0.33631678  0.94783360     1.02300
Cr547      Cr  0.58004833  0.39884733  0.89869551     1.93700
Cr548      Cr  0.61007528  0.46495344  0.95119397     1.93200
Cr549      Cr  0.54377973  0.39009303  0.97438351     1.39100
O550        O  0.57782032  0.41836634  0.94164379    -1.23300
O551        O  0.40249553  0.52059086  0.11757961    -0.85600
O552        O  0.45390878  0.59211226  0.10817315    -0.82600
C553        C  0.48264333  0.60752198  0.08912107     0.97900
O554        O  0.48278436  0.60239403  0.05403903    -0.82700
O555        O  0.45425709  0.54568521  0.00132265    -0.99700
C556        C  0.44701358  0.51512678  0.01559955     1.02400
O557        O  0.41889116  0.49677489  0.03567283    -0.78100
O558        O  0.35900621  0.48207298  0.08221586    -0.78300
C559        C  0.37431195  0.49000000  0.11366696     1.02300
O560        O  0.34783629  0.53688381  0.08892506    -0.85600
O561        O  0.40168455  0.60735593  0.08200511    -0.82700
C562        C  0.41985089  0.63153975  0.05818784     0.97900
O563        O  0.43590994  0.62584346  0.03167078    -0.82700
O564        O  0.40229917  0.57167077  0.97831339    -0.85300
C565        C  0.38357586  0.53995631  0.96500264     1.02400
O566        O  0.38847288  0.51628115  0.97929729    -0.78100
O567        O  0.33929869  0.51774934  0.03012082    -0.78300
C568        C  0.33064261  0.53034391  0.05799081     1.02300
Cr569      Cr  0.40194238  0.56289785  0.09562490     1.93700
Cr570      Cr  0.44109221  0.58338678  0.01802491     1.93200
Cr571      Cr  0.37859451  0.50634801  0.03322328     1.39100
O572        O  0.40826404  0.55169743  0.04963050    -1.23300
O573        O  0.60462848  0.14305021  0.87812603    -0.85600
O574        O  0.53188329  0.11644337  0.86954865    -0.82600
C575        C  0.50029882  0.11014047  0.87488160     0.97900
O576        O  0.49132241  0.11322085  0.90777483    -0.82700
O577        O  0.51032661  0.07002982  0.95140796    -0.85300
C578        C  0.52933985  0.06110138  0.97088794     1.02400
O579        O  0.55964111  0.08563463  0.98488883    -0.78100
O580        O  0.60810308  0.11207133  0.92584154    -0.78300
C581        C  0.61533219  0.12308380  0.89227625     1.02300
O582        O  0.61301027  0.20674155  0.91320857    -0.85600
O583        O  0.54128671  0.18249329  0.90465258    -0.82700
C584        C  0.53470559  0.19116126  0.93657514     0.97900
O585        O  0.52485821  0.16893790  0.96342782    -0.82700
O586        O  0.53145940  0.12121083  0.00983708    -0.85300
C587        C  0.55686536  0.14995587  0.02401565     1.02400
O588        O  0.58737312  0.16399666  0.00818211    -0.78100
O589        O  0.63756816  0.18434474  0.94997391    -0.78300
C590        C  0.64026793  0.21001399  0.93012509     1.02300
Cr591      Cr  0.57175102  0.16025139  0.89453280     1.93700
Cr592      Cr  0.51737129  0.11934151  0.95659833     1.93200
Cr593      Cr  0.59536171  0.13656681  0.96590592     1.39100
O594        O  0.56194813  0.13843287  0.93833163    -1.23300
O595        O  0.45851812  0.84442413  0.13046563    -0.85600
O596        O  0.40676921  0.86312506  0.11018960    -0.82600
C597        C  0.38020839  0.86166089  0.09323773     0.97900
O598        O  0.37420360  0.85135619  0.05905931    -0.82700
O599        O  0.43717004  0.89383343  0.01999757    -0.85300
C600        C  0.47047413  0.90959558  0.01260856     1.02400
O601        O  0.48791357  0.89290516  0.01602861    -0.78100
O602        O  0.49778577  0.88217584  0.09023281    -0.78300
C603        C  0.49013477  0.86991165  0.12297350     1.02300
O604        O  0.41481915  0.77656382  0.09367449    -0.85600
O605        O  0.36132989  0.79029260  0.08304722    -0.82700
C606        C  0.34951306  0.77482959  0.05162446     0.97900
O607        O  0.36787617  0.78837772  0.02224588    -0.82700
O608        O  0.42790059  0.83260308  0.97658719    -0.85300
C609        C  0.44578431  0.81642362  0.97549770     1.02400
O610        O  0.46086066  0.81428773  0.00448040    -0.78100
O611        O  0.47163264  0.80516236  0.07545466    -0.78300
C612        C  0.44253646  0.77582728  0.08365595     1.02300
Cr613      Cr  0.41213457  0.82042776  0.10139476     1.93700
Cr614      Cr  0.40409495  0.84136322  0.02189095     1.93200
Cr615      Cr  0.47615660  0.84815908  0.04715016     1.39100
O616        O  0.43113719  0.83696123  0.05679919    -1.23300
O617        O  0.12813047  0.57645405  0.11763289    -0.85600
O618        O  0.15302551  0.53025791  0.09872617    -0.82600
C619        C  0.13314726  0.50071113  0.08123776     0.97900
O620        O  0.12148898  0.50004305  0.04831020    -0.82700
O621        O  0.09489492  0.52878393  0.99585782    -0.85300
C622        C  0.07097164  0.53274181  0.01295928     1.02400
O623        O  0.08052966  0.55942089  0.03545369    -0.78100
O624        O  0.12517551  0.61753944  0.08525103    -0.78300
C625        C  0.12226970  0.60246006  0.11637925     1.02300
O626        O  0.19339769  0.63613569  0.08647165    -0.85600
O627        O  0.21623323  0.58892030  0.06796679    -0.82700
C628        C  0.21833341  0.56664912  0.04628820     0.97900
O629        O  0.19245892  0.54623220  0.02464635    -0.82700
O630        O  0.17275731  0.58195214  0.97416024    -0.85300
C631        C  0.16014677  0.60128414  0.96311760     1.02400
O632        O  0.13143336  0.59570619  0.97833586    -0.78100
O633        O  0.18024176  0.64524152  0.02966323    -0.78300
C634        C  0.20243050  0.65473423  0.05669037     1.02300
Cr635      Cr  0.17068107  0.58223443  0.08944125     1.93700
Cr636      Cr  0.14537687  0.54195309  0.01257082     1.93200
Cr637      Cr  0.13027663  0.60242863  0.03327019     1.39100
O638        O  0.14837250  0.57460807  0.04577316    -1.23300
O639        O  0.87267927  0.45947909  0.87413801    -0.85600
O640        O  0.84778911  0.38618578  0.85331905    -0.82600
C641        C  0.87350620  0.38067508  0.85900954     0.97900
O642        O  0.88822207  0.38742503  0.89076042    -0.82700
O643        O  0.90303313  0.40838880  0.96474447    -0.85300
C644        C  0.91864751  0.44207458  0.97354495     1.02400
O645        O  0.90260510  0.45974531  0.97051999    -0.78100
O646        O  0.86494003  0.48201840  0.92669465    -0.78300
C647        C  0.87525426  0.48620854  0.89255642     1.02300
O648        O  0.80248001  0.43688273  0.90099261    -0.85600
O649        O  0.78371071  0.36567790  0.89347759    -0.82700
C650        C  0.78251047  0.33655496  0.90262155     0.97900
O651        O  0.81167924  0.33640663  0.90893581    -0.82700
O652        O  0.82680987  0.35598028  0.98034669    -0.85300
C653        C  0.82567044  0.37277914  0.00862254     1.02400
O654        O  0.83812857  0.40679713  0.00777260    -0.78100
O655        O  0.79810228  0.42457196  0.96052325    -0.78300
C656        C  0.78609175  0.43170684  0.93157997     1.02300
Cr657      Cr  0.82856374  0.41198843  0.88370873     1.93700
Cr658      Cr  0.85694573  0.37513603  0.93561554     1.93200
Cr659      Cr  0.85060620  0.44079894  0.96367675     1.39100
O660        O  0.84607177  0.40947333  0.92797448    -1.23300
O661        O  0.92413264  0.78866410  0.02808172    -0.85600
O662        O  0.87318309  0.80798150  0.04341678    -0.82600
C663        C  0.84430812  0.78891424  0.06171678     0.97900
O664        O  0.84463385  0.78138498  0.09602199    -0.82700
O665        O  0.87543123  0.76051672  0.15164502    -0.85300
C666        C  0.87999491  0.73584939  0.13685383     1.02400
O667        O  0.90635513  0.74458002  0.11458040    -0.78100
O668        O  0.96435987  0.78855713  0.06444469    -0.78300
C669        C  0.95067566  0.78416753  0.03225617     1.02300
O670        O  0.97959864  0.85854218  0.05858013    -0.85600
O671        O  0.92832863  0.87621907  0.07162952    -0.82700
C672        C  0.90643199  0.87925407  0.09260310     0.97900
O673        O  0.88769120  0.85480834  0.11605683    -0.82700
O674        O  0.92558911  0.83972044  0.16960284    -0.85300
C675        C  0.94555887  0.82862014  0.18265064     1.02400
O676        O  0.94203866  0.79987448  0.16898107    -0.78100
O677        O  0.98953149  0.84672036  0.11600335    -0.78300
C678        C  0.99809508  0.86838346  0.08866607     1.02300
Cr679      Cr  0.92561046  0.83087182  0.05406025     1.93700
Cr680      Cr  0.88625551  0.80921593  0.13135903     1.93200
Cr681      Cr  0.94819298  0.79567030  0.11456347     1.39100
O682        O  0.91919574  0.81152247  0.09927645    -1.23300
O683        O  0.79828395  0.51349532  0.27217816    -0.85600
O684        O  0.74795261  0.53126783  0.29520350    -0.82600
C685        C  0.72129404  0.53590667  0.29364591     0.97900
O686        O  0.70600407  0.53216006  0.26261246    -0.82700
O687        O  0.75908537  0.57638143  0.20832765    -0.85300
C688        C  0.78333010  0.58510262  0.18335484     1.02400
O689        O  0.78731673  0.56057283  0.16737117    -0.78100
O690        O  0.82292059  0.53917350  0.21775055    -0.78300
C691        C  0.82563093  0.53198368  0.25172536     1.02300
O692        O  0.74285263  0.44489656  0.24651892    -0.85600
O693        O  0.69155180  0.46167064  0.26668793    -0.82700
C694        C  0.67065529  0.45201013  0.23847891     0.97900
O695        O  0.67706186  0.47387420  0.21171475    -0.82700
O696        O  0.71898157  0.52084079  0.15581914    -0.85300
C697        C  0.71421896  0.49199229  0.14132993     1.02400
O698        O  0.73563860  0.48145525  0.15094860    -0.78100
O699        O  0.77762336  0.46631687  0.19707315    -0.78300
C700        C  0.76194595  0.44203249  0.22141174     1.02300
Cr701      Cr  0.74553433  0.48985530  0.26634927     1.93700
Cr702      Cr  0.71789250  0.52505081  0.21083533     1.93200
Cr703      Cr  0.77820404  0.51192505  0.18572387     1.39100
O704        O  0.74822560  0.50949107  0.22172092    -1.23300
O705        O  0.87397796  0.05320496  0.02291332    -0.85600
O706        O  0.92304912  0.12636366  0.04453718    -0.82600
C707        C  0.94836256  0.15294731  0.06246378     0.97900
O708        O  0.95482021  0.14891780  0.09662887    -0.82700
O709        O  0.89613454  0.12595496  0.14363010    -0.85300
C710        C  0.86203893  0.11010054  0.14431625     1.02400
O711        O  0.84228939  0.07719347  0.13323840    -0.78100
O712        O  0.83512966  0.05498229  0.05997099    -0.78300
C713        C  0.84278039  0.04774331  0.02845193     1.02300
O714        O  0.91664292  0.03259335  0.06180686    -0.85600
O715        O  0.97083504  0.10390389  0.06868562    -0.82700
C716        C  0.98407134  0.10036050  0.09857975     0.97900
O717        O  0.96538571  0.09203850  0.12805902    -0.82700
O718        O  0.90798314  0.07143140  0.17697896    -0.85300
C719        C  0.88324897  0.03804675  0.17792351     1.02400
O720        O  0.86231999  0.02337871  0.15062720    -0.78100
O721        O  0.85913592  0.00329613  0.07953100    -0.78300
C722        C  0.88814466  0.00344872  0.07089877     1.02300
Cr723      Cr  0.91919256  0.07899075  0.05305883     1.93700
Cr724      Cr  0.92849463  0.10700592  0.13361058     1.93200
Cr725      Cr  0.85358717  0.04284509  0.10524125     1.39100
O726        O  0.89996177  0.07626556  0.09784438    -1.23300
O727        O  0.71986476  0.19685844  0.26508370    -0.85600
O728        O  0.79093152  0.24778097  0.28327525    -0.82600
C729        C  0.82219651  0.27544856  0.28087853     0.97900
O730        O  0.83313938  0.28951918  0.24914201    -0.82700
O731        O  0.82127145  0.23139556  0.20033270    -0.85300
C732        C  0.80380412  0.20357504  0.17905871     1.02400
O733        O  0.77544154  0.19818832  0.16175022    -0.78100
O734        O  0.71957347  0.16730436  0.21369845    -0.78300
C735        C  0.70965001  0.16755774  0.24713825     1.02300
O736        O  0.71062812  0.25213610  0.23437478    -0.85600
O737        O  0.77996302  0.30360879  0.25183533    -0.82700
C738        C  0.79002862  0.32282719  0.22244848     0.97900
O739        O  0.80248411  0.31374171  0.19479785    -0.82700
O740        O  0.80465028  0.26547942  0.14306546    -0.85300
C741        C  0.77983879  0.26783302  0.12738759     1.02400
O742        O  0.74805401  0.24744895  0.13912643    -0.78100
O743        O  0.69284441  0.21112532  0.18937465    -0.78300
C744        C  0.68679229  0.23042410  0.21156428     1.02300
Cr745      Cr  0.75169155  0.24932620  0.25516702     1.93700
Cr746      Cr  0.81222923  0.27268627  0.19792645     1.93200
Cr747      Cr  0.73680845  0.20892301  0.17803942     1.39100
O748        O  0.76638438  0.24276208  0.21102052    -1.23300
O749        O  0.48500242  0.26684100  0.27234551    -0.85600
O750        O  0.46186697  0.19482798  0.28686396    -0.82600
C751        C  0.45591805  0.16294952  0.28269713     0.97900
O752        O  0.46076006  0.15335864  0.25088995    -0.82700
O753        O  0.41827377  0.16870511  0.20180713    -0.85300
C754        C  0.41021599  0.18681456  0.17974008     1.02400
O755        O  0.43505249  0.21602351  0.16467518    -0.78100
O756        O  0.46050895  0.27093134  0.21910932    -0.78300
C757        C  0.46862131  0.27904479  0.25353191     1.02300
O758        O  0.55125885  0.27817483  0.24499712    -0.85600
O759        O  0.52995839  0.20676916  0.25691678    -0.82700
C760        C  0.53960796  0.19849616  0.22660619     0.97900
O761        O  0.51788189  0.18557493  0.19903094    -0.82700
O762        O  0.47051761  0.18655980  0.14675371    -0.85300
C763        C  0.50017229  0.20993921  0.13311854     1.02400
O764        O  0.51347755  0.24196095  0.14569614    -0.78100
O765        O  0.53136946  0.29617075  0.19809894    -0.78300
C766        C  0.55520594  0.30236253  0.22219092     1.02300
Cr767      Cr  0.50508060  0.23531335  0.26170415     1.93700
Cr768      Cr  0.46783428  0.17658328  0.20099423     1.93200
Cr769      Cr  0.48487990  0.25336053  0.18376299     1.39100
O770        O  0.48550955  0.22234417  0.21633444    -1.23300
O771        O  0.20302898  0.12417509  0.03315464    -0.85600
O772        O  0.18055139  0.05262923  0.04901855    -0.82600
C773        C  0.20159237  0.04433149  0.06499130     0.97900
O774        O  0.21306768  0.05464447  0.09824330    -0.82700
O775        O  0.23647506  0.10717439  0.15478239    -0.85300
C776        C  0.26063947  0.13639635  0.13944029     1.02400
O777        O  0.25160958  0.15391625  0.11771618    -0.78100
O778        O  0.20732293  0.16705972  0.06963567    -0.78300
C779        C  0.21017298  0.15648304  0.03751045     1.02300
O780        O  0.13692889  0.11376226  0.06589298    -0.85600
O781        O  0.11629559  0.04304524  0.08189012    -0.82700
C782        C  0.11507001  0.01815938  0.10184661     0.97900
O783        O  0.14172951  0.02425287  0.12186908    -0.82700
O784        O  0.15936707  0.07806946  0.17522211    -0.85300
C785        C  0.17104893  0.10985899  0.18791602     1.02400
O786        O  0.19946874  0.13517051  0.17398481    -0.78100
O787        O  0.15126759  0.13612136  0.12323383    -0.78300
C788        C  0.12935863  0.12460703  0.09580917     1.02300
Cr789      Cr  0.16127638  0.08471660  0.06090462     1.93700
Cr790      Cr  0.18755899  0.06875917  0.13570865     1.93200
Cr791      Cr  0.20142632  0.14492537  0.11981432     1.39100
O792        O  0.18382447  0.09911785  0.10471658    -1.23300
C793        C  0.37183768  0.17362670  0.16966318    -0.05700
C794        C  0.36376283  0.19418876  0.14496034    -0.33100
C795        C  0.32798085  0.18250853  0.13441561     0.36100
C796        C  0.29919747  0.14990110  0.14899335    -0.06100
C797        C  0.30734403  0.12933125  0.17356378    -0.33000
C798        C  0.34303855  0.14086701  0.18394996     0.36000
H799        H  0.38528831  0.21950539  0.13348408     0.16400
O800        O  0.32163283  0.20342620  0.11012825    -0.60500
H801        H  0.28591342  0.10395218  0.18503270     0.16400
O802        O  0.34929626  0.11944682  0.20761505    -0.60600
H803        H  0.34612059  0.12649868  0.23326059     0.43400
H804        H  0.32277798  0.19445796  0.08472257     0.43300
C805        C  0.65002386  0.22492888  0.21346275    -0.05700
C806        C  0.63825764  0.23133118  0.24779964    -0.33100
C807        C  0.60232517  0.22195697  0.25283995     0.36100
C808        C  0.57706934  0.20573153  0.22310427    -0.06100
C809        C  0.58906797  0.20007441  0.18838845    -0.33000
C810        C  0.62513038  0.20930493  0.18349502     0.36000
H811        H  0.65674851  0.24271115  0.27144389     0.16400
O812        O  0.59227458  0.22840392  0.28724250    -0.60500
H813        H  0.57057932  0.18871151  0.16475569     0.16400
O814        O  0.63593321  0.20375821  0.14910127    -0.60600
H815        H  0.62690046  0.17724992  0.14773387     0.43400
H816        H  0.59955519  0.25452391  0.28710884     0.43300
C817        C  0.02185172  0.10790751  0.09833422    -0.05700
C818        C  0.03888039  0.10776160  0.13191575    -0.33100
C819        C  0.07453683  0.11473837  0.13189813     0.36100
C820        C  0.09398176  0.12250425  0.09800518    -0.06100
C821        C  0.07724231  0.12341397  0.06461128    -0.33000
C822        C  0.04163318  0.11602295  0.06441031     0.36000
H823        H  0.02437066  0.10164068  0.15823481     0.16400
O824        O  0.08943652  0.11230695  0.16493784    -0.60500
H825        H  0.09156919  0.12906535  0.03818121     0.16400
O826        O  0.02657143  0.11672710  0.03066463    -0.60600
H827        H  0.01637834  0.09187434  0.01987809     0.43400
H828        H  0.08290617  0.08646126  0.16649242     0.43300
C829        C  0.84541340  0.13158198  0.15712971    -0.05700
C830        C  0.81104129  0.12262327  0.14386241    -0.33100
C831        C  0.79679884  0.14512190  0.15154683     0.36100
C832        C  0.81710244  0.17772670  0.17273516    -0.06100
C833        C  0.85060712  0.18553975  0.18778176    -0.33000
C834        C  0.86480380  0.16298246  0.18013740     0.36000
H835        H  0.79551482  0.09863822  0.12636406     0.16400
O836        O  0.76323983  0.13517282  0.13737653    -0.60500
H837        H  0.86635915  0.20966642  0.20502107     0.16400
O838        O  0.89751610  0.17168098  0.19579649    -0.60600
H839        H  0.91609241  0.19202804  0.18054569     0.43400
H840        H  0.74577913  0.11899792  0.15657121     0.43300
C841        C  0.78571444  0.35522257  0.22143571    -0.05700
C842        C  0.77796956  0.36731986  0.25510020    -0.33100
C843        C  0.76927411  0.39471037  0.25529910     0.36100
C844        C  0.76813026  0.41088223  0.22140795    -0.06100
C845        C  0.77672343  0.39954167  0.18779219    -0.33000
C846        C  0.78500752  0.37170383  0.18753644     0.36000
H847        H  0.77831145  0.35527435  0.28164876     0.16400
O848        O  0.76257336  0.40585660  0.28898298    -0.60500
H849        H  0.77656414  0.41199654  0.16146229     0.16400
O850        O  0.79153790  0.36038951  0.15391408    -0.60600
H851        H  0.76730590  0.34157107  0.14434813     0.43400
H852        H  0.78659970  0.42550290  0.29815406     0.43300
C853        C  0.63991443  0.41404106  0.23580969    -0.05700
C854        C  0.62098920  0.40171518  0.20171345    -0.33100
C855        C  0.59486905  0.36512920  0.19618916     0.36100
C856        C  0.58664645  0.33979930  0.22527974    -0.06100
C857        C  0.60553633  0.35195565  0.25943824    -0.33000
C858        C  0.63206805  0.38863123  0.26484228     0.36000
H859        H  0.62699252  0.42029309  0.17865679     0.16400
O860        O  0.57736435  0.35460160  0.16216691    -0.60500
H861        H  0.59916498  0.33318684  0.28245094     0.16400
O862        O  0.64973018  0.39925435  0.29878467    -0.60600
H863        H  0.66903991  0.39305611  0.29735802     0.43400
H864        H  0.59095577  0.34584162  0.14734315     0.43300
C865        C  0.08350129  0.98037507  0.10033669    -0.05700
C866        C  0.08541934  0.95269232  0.11973660    -0.33100
C867        C  0.05829930  0.91606878  0.11580414     0.36100
C868        C  0.02852332  0.90633672  0.09205608    -0.06100
C869        C  0.02624388  0.93386988  0.07304793    -0.33000
C870        C  0.05312916  0.97057074  0.07728774     0.36000
H871        H  0.10848539  0.95923240  0.13751288     0.16400
O872        O  0.06154541  0.89006196  0.13484243    -0.60500
H873        H  0.00309824  0.92701447  0.05524856     0.16400
O874        O  0.04963539  0.99639186  0.05817996    -0.60600
H875        H  0.03569157  0.00319838  0.07511246     0.43400
H876        H  0.07259269  0.88087635  0.11670174     0.43300
C877        C  0.88988602  0.96969846  0.07323789    -0.05700
C878        C  0.86832147  0.94277471  0.09933437    -0.33100
C879        C  0.87414579  0.91397628  0.10710916     0.36100
C880        C  0.90134721  0.91102463  0.08778421    -0.06100
C881        C  0.92199753  0.93740422  0.06071787    -0.33000
C882        C  0.91648541  0.96634514  0.05338044     0.36000
H883        H  0.84768496  0.94473324  0.11480100     0.16400
O884        O  0.85286725  0.88886038  0.13349954    -0.60500
H885        H  0.94260886  0.93567130  0.04488495     0.16400
O886        O  0.93765277  0.99147318  0.02691726    -0.60600
H887        H  0.92440331  0.98178588  0.00284908     0.43400
H888        H  0.86518692  0.89935077  0.15783242     0.43300
C889        C  0.85481386  0.69699778  0.14765320    -0.05700
C890        C  0.82948893  0.68897485  0.17662848    -0.33100
C891        C  0.80590366  0.65302815  0.18835108     0.36100
C892        C  0.80698126  0.62378490  0.17108512    -0.06100
C893        C  0.83173941  0.63174860  0.14150259    -0.33000
C894        C  0.85520447  0.66766880  0.12967890     0.36000
H895        H  0.82807224  0.71074887  0.19075508     0.16400
O896        O  0.78187044  0.64698140  0.21665083    -0.60500
H897        H  0.83308850  0.60998678  0.12725661     0.16400
O898        O  0.87845533  0.67359448  0.10059386    -0.60600
H899        H  0.86520882  0.67339337  0.07768628     0.43400
H900        H  0.79552188  0.65012868  0.24020740     0.43300
C901        C  0.81208610  0.35147773  0.04336842    -0.05700
C902        C  0.77544125  0.32371206  0.04600790    -0.33100
C903        C  0.76395658  0.29653376  0.07358456     0.36100
C904        C  0.78954775  0.29622259  0.09820959    -0.06100
C905        C  0.82597726  0.32479084  0.09593040    -0.33000
C906        C  0.83715898  0.35223529  0.06913613     0.36000
H907        H  0.75597125  0.32227005  0.02565350     0.16400
O908        O  0.72800741  0.27000623  0.07545463    -0.60500
H909        H  0.84625103  0.32577176  0.11481340     0.16400
O910        O  0.87331530  0.37796513  0.06625373    -0.60600
H911        H  0.87744801  0.39735338  0.08451861     0.43400
H912        H  0.72478965  0.25125494  0.05677141     0.43300
C913        C  0.03163644  0.50705849  0.00499542    -0.05700
C914        C  0.00551977  0.51275812  0.02234199    -0.33100
C915        C  0.96859249  0.49079077  0.01351442     0.36100
C916        C  0.95681007  0.46211972  0.98705713    -0.06100
C917        C  0.98248503  0.45506676  0.97115619    -0.33000
C918        C  0.01952399  0.47712470  0.97987887     0.36000
H919        H  0.01369096  0.53480353  0.04242040     0.16400
O920        O  0.94407483  0.49719282  0.03144618    -0.60500
H921        H  0.97400772  0.43321352  0.95076445     0.16400
O922        O  0.04361899  0.46970057  0.96268353    -0.60600
H923        H  0.04461339  0.45143168  0.97889226     0.43400
H924        H  0.94583321  0.51863999  0.01875440     0.43300
C925        C  0.31295646  0.74246836  0.05043834    -0.05700
C926        C  0.28936539  0.73655120  0.02039779    -0.33100
C927        C  0.25282308  0.70874838  0.02207194     0.36100
C928        C  0.23971427  0.68635217  0.05406932    -0.06100
C929        C  0.26390175  0.69200279  0.08346859    -0.33000
C930        C  0.30000825  0.71960521  0.08188767     0.36000
H931        H  0.29894484  0.75421727  0.99619281     0.16400
O932        O  0.23046428  0.70365825  0.99226630    -0.60500
H933        H  0.25507621  0.67469590  0.10796197     0.16400
O934        O  0.32275101  0.72349202  0.11098563    -0.60600
H935        H  0.31694612  0.73545592  0.13155489     0.43400
H936        H  0.22054563  0.71972044  0.99746639     0.43300
C937        C  0.51876608  0.19721821  0.10669367    -0.05700
C938        C  0.50391087  0.15932510  0.10335125    -0.33100
C939        C  0.51812378  0.14426169  0.07887912     0.36100
C940        C  0.54831651  0.16680626  0.05635696    -0.06100
C941        C  0.56500324  0.20496865  0.06102771    -0.33000
C942        C  0.55064816  0.22022407  0.08630078     0.36000
H943        H  0.48041293  0.14060170  0.11960800     0.16400
O944        O  0.50173321  0.10697736  0.07686987    -0.60500
H945        H  0.58795052  0.22296518  0.04372736     0.16400
O946        O  0.56673836  0.25736397  0.08912111    -0.60600
H947        H  0.58649654  0.26492377  0.10781185     0.43400
H948        H  0.47897160  0.09858361  0.06247651     0.43300
C949        C  0.67648262  0.24308112  0.92431432    -0.05700
C950        C  0.70790117  0.24140001  0.93100335    -0.33100
C951        C  0.74242361  0.27065154  0.92226553     0.36100
C952        C  0.74634750  0.30302935  0.90743267    -0.06100
C953        C  0.71485566  0.30465392  0.90073258    -0.33000
C954        C  0.68034938  0.27519706  0.90888318     0.36000
H955        H  0.70577875  0.21700510  0.94253244     0.16400
O956        O  0.77206376  0.26738739  0.92915267    -0.60500
H957        H  0.71684168  0.32916401  0.88960959     0.16400
O958        O  0.65066379  0.27830079  0.90169929    -0.60600
H959        H  0.64723164  0.28928818  0.92478870     0.43400
H960        H  0.77561110  0.25690909  0.90576013     0.43300
C961        C  0.51520247  0.02188964  0.97927031    -0.05700
C962        C  0.53852525  0.01016384  0.99259475    -0.33100
C963        C  0.52504509  0.97347449  0.00237703     0.36100
C964        C  0.48765504  0.94784827  0.99910874    -0.06100
C965        C  0.46477047  0.95959630  0.98488640    -0.33000
C966        C  0.47803787  0.99581482  0.97502511     0.36000
H967        H  0.56726162  0.02955525  0.99583968     0.16400
O968        O  0.54847642  0.96331200  0.01587090    -0.60500
H969        H  0.43590277  0.94061917  0.98186129     0.16400
O970        O  0.45383989  0.00562372  0.96311757    -0.60600
H971        H  0.45044811  0.99974985  0.93589679     0.43400
H972        H  0.54968081  0.96772008  0.04332719     0.43300
C973        C  0.30144780  0.53914250  0.05459291    -0.05700
C974        C  0.29564008  0.55739457  0.08436961    -0.33100
C975        C  0.27033021  0.56864753  0.08129240     0.36100
C976        C  0.24985957  0.56147800  0.04805047    -0.06100
C977        C  0.25603940  0.54380838  0.01809452    -0.33000
C978        C  0.28139156  0.53264888  0.02110927     0.36000
H979        H  0.31084974  0.56316502  0.11031937     0.16400
O980        O  0.26438209  0.58463699  0.11180649    -0.60500
H981        H  0.24049622  0.53780651  0.99233966     0.16400
O982        O  0.28624525  0.51550426  0.99098115    -0.60600
H983        H  0.26886060  0.48918190  0.99470196     0.43400
H984        H  0.28220468  0.61106736  0.10949608     0.43300
C985        C  0.42456497  0.66822963  0.06340819    -0.05700
C986        C  0.45499898  0.69884443  0.04798966    -0.33100
C987        C  0.46250923  0.73428719  0.05590695     0.36100
C988        C  0.43932041  0.73968993  0.07955248    -0.06100
C989        C  0.40910159  0.70904167  0.09521588    -0.33000
C990        C  0.40159154  0.67375101  0.08732543     0.36000
H991        H  0.47356908  0.69543549  0.03027165     0.16400
O992        O  0.49254009  0.76335712  0.04033444    -0.60500
H993        H  0.39061827  0.71229960  0.11325490     0.16400
O994        O  0.37165034  0.64489356  0.10328261    -0.60600
H995        H  0.35146087  0.63870526  0.08556479     0.43400
H996        H  0.48614440  0.76364684  0.01367330     0.43300
C997        C  0.62787078  0.43894848  0.05974575    -0.05700
C998        C  0.62466864  0.45852690  0.08956581    -0.33100
C999        C  0.65187558  0.47457120  0.11718618     0.36100
C1000       C  0.68297587  0.47102369  0.11527832    -0.06100
C1001       C  0.68418956  0.44833350  0.08752497    -0.33000
C1002       C  0.65731639  0.43299408  0.05951992     0.36000
H1003       H  0.60257241  0.46389092  0.08987834     0.16400
O1004       O  0.64868167  0.49527799  0.14484052    -0.60500
H1005       H  0.70725361  0.44454405  0.08591012     0.16400
O1006       O  0.66126135  0.41415119  0.03047859    -0.60600
H1007       H  0.68091398  0.43310646  0.01492786     0.43400
H1008       H  0.62903728  0.47767035  0.16144287     0.43300
C1009       C  0.55631124  0.30075094  0.94939281    -0.05700
C1010       C  0.53430745  0.27447271  0.97585731    -0.33100
C1011       C  0.52653806  0.23826688  0.97237842     0.36100
C1012       C  0.54082551  0.22829851  0.94195237    -0.06100
C1013       C  0.56392879  0.25519905  0.91661677    -0.33000
C1014       C  0.57177980  0.29095506  0.92016400     0.36000
H1015       H  0.52169390  0.28151105  0.99806440     0.16400
O1016       O  0.50305833  0.21241845  0.99707286    -0.60500
H1017       H  0.57617884  0.24861719  0.89365568     0.16400
O1018       O  0.59487733  0.31637413  0.89485845    -0.60600
H1019       H  0.58056789  0.31121955  0.87140002     0.43400
H1020       H  0.51431685  0.22072761  0.02218596     0.43300
C1021       C  0.68862511  0.43543667  0.92580680    -0.05700
C1022       C  0.68995934  0.40881400  0.94748034    -0.33100
C1023       C  0.72231173  0.40886250  0.95178809     0.36100
C1024       C  0.75335829  0.43444407  0.93234342    -0.06100
C1025       C  0.75186963  0.46070285  0.90997426    -0.33000
C1026       C  0.71985033  0.46163599  0.90704935     0.36000
H1027       H  0.66577724  0.38800514  0.96138564     0.16400
O1028       O  0.72269248  0.38242222  0.97308182    -0.60500
H1029       H  0.77549923  0.48026260  0.89437619     0.16400
O1030       O  0.71895306  0.48718568  0.88467689    -0.60600
H1031       H  0.71134826  0.47552059  0.85955073     0.43400
H1032       H  0.72730438  0.39214135  0.99910345     0.43300
C1033       C  0.51729354  0.47238447  0.99019073    -0.05700
C1034       C  0.48214150  0.44961908  0.00437948    -0.33100
C1035       C  0.45921732  0.46302082  0.01274260     0.36100
C1036       C  0.47105600  0.50018659  0.00724084    -0.06100
C1037       C  0.50622007  0.52306463  0.99303395    -0.33000
C1038       C  0.52926823  0.50954167  0.98471043     0.36000
H1039       H  0.47203682  0.42091956  0.00888269     0.16400
O1040       O  0.42505533  0.43920223  0.02582483    -0.60500
H1041       H  0.51599651  0.55165569  0.98829452     0.16400
O1042       O  0.56275172  0.53256755  0.96970301    -0.60600
H1043       H  0.57848890  0.54611175  0.99141136     0.43400
H1044       H  0.40982678  0.42846527  0.00305311     0.43300
C1045       C  0.18431696  0.96726387  0.98464137    -0.05700
C1046       C  0.21352822  0.00317149  0.97968020    -0.33100
C1047       C  0.22497073  0.02880641  0.00894418     0.36100
C1048       C  0.20817670  0.01843877  0.04417727    -0.06100
C1049       C  0.18404186  0.98126926  0.05099646    -0.33000
C1050       C  0.17178610  0.95569186  0.02146662     0.36000
H1051       H  0.22431207  0.01287074  0.95193142     0.16400
O1052       O  0.24806617  0.06494319  0.00109997    -0.60500
H1053       H  0.17052665  0.97288348  0.07788221     0.16400
O1054       O  0.14425961  0.92073763  0.02813634    -0.60600
H1055       H  0.15650759  0.90701407  0.03393146     0.43400
H1056       H  0.27205795  0.07051254  0.01070579     0.43300
C1057       C  0.02255232  0.80858692  0.94123703    -0.05700
C1058       C  0.98575467  0.79526268  0.93331692    -0.33100
C1059       C  0.95987262  0.78181102  0.96214848     0.36100
C1060       C  0.97084336  0.78147080  0.99941385    -0.06100
C1061       C  0.00623056  0.78812495  0.00545514    -0.33000
C1062       C  0.03205136  0.80192691  0.97676540     0.36000
H1063       H  0.97792725  0.80022353  0.90608153     0.16400
O1064       O  0.92518205  0.77349558  0.95429619    -0.60500
H1065       H  0.01539828  0.78715947  0.03351931     0.16400
O1066       O  0.06768967  0.81439853  0.98538867    -0.60600
H1067       H  0.07194639  0.79469743  0.97714776     0.43400
H1068       H  0.91143055  0.74682480  0.94961704     0.43300
C1069       C  0.21106775  0.69335237  0.88661644    -0.05700
C1070       C  0.22678591  0.67161795  0.89172721    -0.33100
C1071       C  0.21112295  0.64150592  0.91650034     0.36100
C1072       C  0.17889958  0.63237160  0.93609637    -0.06100
C1073       C  0.16471132  0.65546437  0.93202733    -0.33000
C1074       C  0.18049656  0.68549683  0.90826845     0.36000
H1075       H  0.25014888  0.67686735  0.87524522     0.16400
O1076       O  0.22680792  0.62065451  0.92022359    -0.60500
H1077       H  0.14090463  0.65042041  0.94753625     0.16400
O1078       O  0.16493199  0.70658061  0.90566651    -0.60600
H1079       H  0.17852312  0.72687723  0.92378284     0.43400
H1080       H  0.24530459  0.63280139  0.94028928     0.43300
C1081       C  0.18280958  0.80703791  0.81421727    -0.05700
C1082       C  0.20153038  0.83571813  0.84022967    -0.33100
C1083       C  0.18815082  0.85824993  0.85109745     0.36100
C1084       C  0.15543044  0.85292299  0.83563212    -0.06100
C1085       C  0.13666230  0.82422860  0.80961162    -0.33000
C1086       C  0.14995859  0.80151020  0.79891515     0.36000
H1087       H  0.22674244  0.84072579  0.85262540     0.16400
O1088       O  0.20763050  0.88555607  0.87675219    -0.60500
H1089       H  0.11139477  0.81921333  0.79736097     0.16400
O1090       O  0.13014755  0.77364715  0.77392181    -0.60600
H1091       H  0.13842518  0.78455738  0.74876599     0.43400
H1092       H  0.19857835  0.87422934  0.90160982     0.43300
C1093       C  0.12945247  0.02995640  0.89138746    -0.05700
C1094       C  0.12021066  0.03898657  0.85693648    -0.33100
C1095       C  0.11192276  0.06665083  0.85495877     0.36100
C1096       C  0.11347112  0.08603621  0.88771371    -0.06100
C1097       C  0.12410164  0.07763844  0.92181257    -0.33000
C1098       C  0.13204422  0.04999670  0.92380145     0.36000
H1099       H  0.11770385  0.02342722  0.83180628     0.16400
O1100       O  0.10210280  0.07416598  0.82109274    -0.60500
H1101       H  0.12606681  0.09233375  0.94745987     0.16400
O1102       O  0.14152166  0.04227566  0.95780236    -0.60600
H1103       H  0.16836077  0.05706656  0.95874720     0.43400
H1104       H  0.07568047  0.05664290  0.81875416     0.43300
C1105       C  0.18894174  0.20642598  0.94794645    -0.05700
C1106       C  0.19941104  0.18084527  0.93942529    -0.33100
C1107       C  0.21172520  0.16719536  0.96777132     0.36100
C1108       C  0.21445630  0.17988287  0.00491894    -0.06100
C1109       C  0.21150920  0.21091779  0.01125939    -0.33000
C1110       C  0.19835134  0.22388488  0.98317177     0.36000
H1111       H  0.19309527  0.16744795  0.91221634     0.16400
O1112       O  0.21621141  0.13829912  0.95971160    -0.60500
H1113       H  0.21480268  0.22228418  0.03925128     0.16400
O1114       O  0.19001096  0.25004602  0.99205007    -0.60600
H1115       H  0.21046168  0.27311153  0.98223522     0.43400
H1116       H  0.24275643  0.14902255  0.95727381     0.43300
C1117       C  0.03297680  0.21152066  0.98726915    -0.05700
C1118       C  0.99797982  0.20318851  0.97671764    -0.33100
C1119       C  0.96978952  0.18943215  0.00306695     0.36100
C1120       C  0.97662763  0.18411904  0.04054004    -0.06100
C1121       C  0.01295727  0.19951479  0.05219160    -0.33000
C1122       C  0.04091012  0.21221328  0.02568125     0.36000
H1123       H  0.99125109  0.20238004  0.94727339     0.16400
O1124       O  0.93496660  0.17651488  0.99082006    -0.60500
H1125       H  0.01925970  0.19665951  0.08095317     0.16400
O1126       O  0.07517556  0.22154044  0.03705418    -0.60600
H1127       H  0.07397641  0.19814775  0.04218929     0.43400
H1128       H  0.93140970  0.19765545  0.99261518     0.43300
C1129       C  0.35313851  0.52816712  0.93745874    -0.05700
C1130       C  0.32770877  0.49057407  0.93440848    -0.33100
C1131       C  0.29794648  0.47704924  0.91024037     0.36100
C1132       C  0.29287557  0.50083617  0.88732197    -0.06100
C1133       C  0.31728021  0.53864842  0.89108958    -0.33000
C1134       C  0.34719741  0.55237890  0.91603387     0.36000
H1135       H  0.33063686  0.47112001  0.95111554     0.16400
O1136       O  0.27447123  0.44005130  0.90832875    -0.60500
H1137       H  0.31428167  0.55742123  0.87330336     0.16400
O1138       O  0.37073895  0.58926454  0.91848699    -0.60600
H1139       H  0.39100994  0.59420252  0.90149937     0.43400
H1140       H  0.25383619  0.43535252  0.92465863     0.43300
C1141       C  0.17765841  0.35855962  0.80915038    -0.05700
C1142       C  0.18830440  0.33340323  0.80023179    -0.33100
C1143       C  0.16703248  0.29681977  0.81033327     0.36100
C1144       C  0.13386257  0.28425749  0.82949193    -0.06100
C1145       C  0.12208486  0.30889776  0.83657878    -0.33000
C1146       C  0.14360396  0.34572515  0.82658084     0.36000
H1147       H  0.21389019  0.34222483  0.78631220     0.16400
O1148       O  0.17900344  0.27349999  0.80107568    -0.60500
H1149       H  0.09671910  0.29992146  0.85102937     0.16400
O1150       O  0.13130973  0.36896423  0.83475857    -0.60600
H1151       H  0.11764922  0.36855212  0.81211502     0.43400
H1152       H  0.19779507  0.27808502  0.82011408     0.43300
C1153       C  0.23213598  0.57702233  0.76586563    -0.05700
C1154       C  0.21560849  0.58419579  0.79613102    -0.33100
C1155       C  0.20687262  0.61148495  0.79394916     0.36100
C1156       C  0.21507726  0.63259310  0.76123933    -0.06100
C1157       C  0.23140980  0.62519543  0.73094106    -0.33000
C1158       C  0.24000305  0.59789572  0.73307026     0.36000
H1159       H  0.20881797  0.56816162  0.82147764     0.16400
O1160       O  0.19061483  0.61734113  0.82408950    -0.60500
H1161       H  0.23794898  0.64082807  0.70533404     0.16400
O1162       O  0.25444107  0.59076125  0.70215888    -0.60600
H1163       H  0.28099627  0.60748265  0.70443720     0.43400
H1164       H  0.16420997  0.60103145  0.81984844     0.43300
C1165       C  0.91392847  0.01097222  0.89677165    -0.05700
C1166       C  0.91254405  0.03735345  0.91942617    -0.33100
C1167       C  0.94372212  0.07092312  0.92669902     0.36100
C1168       C  0.97691586  0.07808098  0.91183716    -0.06100
C1169       C  0.97852270  0.05159927  0.88964066    -0.33000
C1170       C  0.94712314  0.01829062  0.88162922     0.36000
H1171       H  0.88721686  0.03166231  0.93194621     0.16400
O1172       O  0.94163926  0.09616131  0.94891659    -0.60500
H1173       H  0.00414481  0.05700689  0.87804822     0.16400
O1174       O  0.94948768  0.99234790  0.86101190    -0.60600
H1175       H  0.94908921  0.99886751  0.83444243     0.43400
H1176       H  0.94816714  0.09244718  0.97453910     0.43300
C1177       C  0.91534263  0.88307526  0.91161395    -0.05700
C1178       C  0.92051488  0.86227615  0.88430689    -0.33100
C1179       C  0.95546939  0.86921915  0.87550414     0.36100
C1180       C  0.98633107  0.89711133  0.89457359    -0.06100
C1181       C  0.98088875  0.91730387  0.92241425    -0.33000
C1182       C  0.94615023  0.91071833  0.93081945     0.36000
H1183       H  0.89748800  0.84128593  0.86878155     0.16400
O1184       O  0.95894138  0.84831574  0.84834394    -0.60500
H1185       H  0.00370263  0.93832706  0.93819873     0.16400
O1186       O  0.94262546  0.93113894  0.95855824    -0.60600
H1187       H  0.95007666  0.95498228  0.94692741     0.43400
H1188       H  0.96009639  0.86043319  0.82431697     0.43300
C1189       C  0.78768932  0.96724266  0.94849300    -0.05700
C1190       C  0.80813512  0.00361357  0.93624465    -0.33100
C1191       C  0.82224530  0.03254927  0.96214848     0.36100
C1192       C  0.81454895  0.02541704  0.00051257    -0.06100
C1193       C  0.78791997  0.99014817  0.01139160    -0.33000
C1194       C  0.77507528  0.96088081  0.98584193     0.36000
H1195       H  0.81791649  0.00954131  0.90765437     0.16400
O1196       O  0.84795706  0.06679587  0.95061929    -0.60500
H1197       H  0.78147643  0.98421007  0.04084794     0.16400
O1198       O  0.75345942  0.92595034  0.99859291    -0.60600
H1199       H  0.76956302  0.92076091  0.01396039     0.43400
H1200       H  0.83408003  0.07818671  0.94208606     0.43300
C1201       C  0.81051098  0.78081154  0.04264225    -0.05700
C1202       C  0.79535704  0.80171726  0.05395283    -0.33100
C1203       C  0.78075193  0.81464325  0.02723650     0.36100
C1204       C  0.78029562  0.80565604  0.98906813    -0.06100
C1205       C  0.78807507  0.77847128  0.97937351    -0.33000
C1206       C  0.80402392  0.76667226  0.00579678     0.36000
H1207       H  0.80035064  0.81312057  0.08209924     0.16400
O1208       O  0.77277537  0.84072718  0.03767392    -0.60500
H1209       H  0.78779354  0.77113881  0.95014407     0.16400
O1210       O  0.81777938  0.74544610  0.99419172    -0.60600
H1211       H  0.84073050  0.76222006  0.98110108     0.43400
H1212       H  0.74601777  0.82751069  0.04005415     0.43300
C1213       C  0.48645628  0.78326446  0.88300031    -0.05700
C1214       C  0.46479430  0.75777883  0.91026939    -0.33100
C1215       C  0.44844618  0.76724871  0.93890846     0.36100
C1216       C  0.45289880  0.80241713  0.94030709    -0.06100
C1217       C  0.47233233  0.82695232  0.91167928    -0.33000
C1218       C  0.48909847  0.81778908  0.88334699     0.36000
H1219       H  0.46170898  0.73096087  0.91030273     0.16400
O1220       O  0.42947758  0.74245777  0.96647128    -0.60500
H1221       H  0.47660619  0.85426036  0.91260829     0.16400
O1222       O  0.50906710  0.84339230  0.85676891    -0.60600
H1223       H  0.49103230  0.84425159  0.84007091     0.43400
H1224       H  0.40394001  0.72920153  0.95766138     0.43300
C1225       C  0.35805190  0.56779068  0.76219410    -0.05700
C1226       C  0.37669026  0.58183397  0.79631136    -0.33100
C1227       C  0.40569523  0.61799127  0.79909554     0.36100
C1228       C  0.41644913  0.64105415  0.76750497    -0.06100
C1229       C  0.39785212  0.62697315  0.73351726    -0.33000
C1230       C  0.36944939  0.59085308  0.73046772     0.36000
H1231       H  0.36849127  0.56495426  0.82110828     0.16400
O1232       O  0.42327673  0.63040337  0.83287432    -0.60500
H1233       H  0.40600454  0.64374274  0.70862493     0.16400
O1234       O  0.35288383  0.57868559  0.69615059    -0.60600
H1235       H  0.36726616  0.56983071  0.68287760     0.43400
H1236       H  0.41106147  0.64191744  0.84555726     0.43300
C1237       C  0.63428541  0.81321834  0.80984458    -0.05700
C1238       C  0.64573513  0.78886965  0.82026633    -0.33100
C1239       C  0.68199654  0.80133298  0.83024227     0.36100
C1240       C  0.70793157  0.83898183  0.83038732    -0.06100
C1241       C  0.69660858  0.86315477  0.81854168    -0.33000
C1242       C  0.66048999  0.85064046  0.80814569     0.36000
H1243       H  0.62634575  0.75984144  0.82099142     0.16400
O1244       O  0.69161408  0.77633789  0.83973128    -0.60500
H1245       H  0.71567987  0.89225326  0.81799270     0.16400
O1246       O  0.65081544  0.87556079  0.79845134    -0.60600
H1247       H  0.65722536  0.88074649  0.77156506     0.43400
H1248       H  0.68579959  0.77151484  0.86677109     0.43300
C1249       C  0.35096326  0.75903491  0.76761583    -0.05700
C1250       C  0.36382293  0.75360892  0.73349387    -0.33100
C1251       C  0.39967180  0.76196606  0.72985559     0.36100
C1252       C  0.42357625  0.77530412  0.76106332    -0.06100
C1253       C  0.41055904  0.78035432  0.79539150    -0.33000
C1254       C  0.37472645  0.77249114  0.79879174     0.36000
H1255       H  0.34635555  0.74399495  0.70895660     0.16400
O1256       O  0.41081248  0.75676031  0.69550607    -0.60500
H1257       H  0.42801223  0.78997846  0.81991549     0.16400
O1258       O  0.36332574  0.77817147  0.83274933    -0.60600
H1259       H  0.35136192  0.75413084  0.84525405     0.43400
H1260       H  0.42026385  0.78030841  0.68223755     0.43300
C1261       C  0.87824750  0.84263848  0.71355466    -0.05700
C1262       C  0.86932196  0.87007726  0.71053800    -0.33100
C1263       C  0.85868840  0.88235763  0.74196525     0.36100
C1264       C  0.85636583  0.86687681  0.77732241    -0.06100
C1265       C  0.86755671  0.84105321  0.78054838    -0.33000
C1266       C  0.87819223  0.82886614  0.74917631     0.36000
H1267       H  0.86942381  0.88121463  0.68334369     0.16400
O1268       O  0.84832065  0.90757282  0.73719616    -0.60500
H1269       H  0.86653193  0.82882276  0.80737222     0.16400
O1270       O  0.88607907  0.80174623  0.75336894    -0.60600
H1271       H  0.86251473  0.77862963  0.75061701     0.43400
H1272       H  0.87075387  0.93156793  0.74102255     0.43300
C1273       C  0.81390024  0.61914380  0.67245069    -0.05700
C1274       C  0.85064038  0.64031616  0.66290394    -0.33100
C1275       C  0.86585550  0.67672309  0.65185876     0.36100
C1276       C  0.84443376  0.69328759  0.65043622    -0.06100
C1277       C  0.80765935  0.67212663  0.65998004    -0.33000
C1278       C  0.79241575  0.63567066  0.67099732     0.36000
H1279       H  0.86780805  0.62857650  0.66368060     0.16400
O1280       O  0.90187328  0.69571397  0.64245418    -0.60500
H1281       H  0.79051256  0.68389115  0.65916150     0.16400
O1282       O  0.75628515  0.61652097  0.67997686    -0.60600
H1283       H  0.75535593  0.62090936  0.70720932     0.43400
H1284       H  0.90242819  0.69160003  0.61510123     0.43300
C1285       C  0.88077999  0.51861173  0.87147452    -0.05700
C1286       C  0.89303499  0.52308543  0.83423820    -0.33100
C1287       C  0.88081745  0.53829550  0.80744306     0.36100
C1288       C  0.85522972  0.54806855  0.81777985    -0.06100
C1289       C  0.84905521  0.55049110  0.85602416    -0.33000
C1290       C  0.86256212  0.53679580  0.88308490     0.36000
H1291       H  0.90798723  0.51038388  0.82476230     0.16400
O1292       O  0.88809982  0.53643072  0.77029430    -0.60500
H1293       H  0.82984222  0.55847132  0.86452322     0.16400
O1294       O  0.85224268  0.53572626  0.91968451    -0.60600
H1295       H  0.87441575  0.55444579  0.93293718     0.43400
H1296       H  0.91273391  0.55771533  0.76627197     0.43300
C1297       C  0.68454946  0.52784171  0.79028232    -0.05700
C1298       C  0.69298984  0.54246859  0.82683736    -0.33100
C1299       C  0.66588400  0.53049055  0.85432559     0.36100
C1300       C  0.63008200  0.50310634  0.84538297    -0.06100
C1301       C  0.62077533  0.49321011  0.80770534    -0.33000
C1302       C  0.64754120  0.50572669  0.78005744     0.36000
H1303       H  0.72104232  0.56011396  0.83519526     0.16400
O1304       O  0.67545306  0.54194862  0.89082586    -0.60500
H1305       H  0.59336508  0.47208640  0.80041087     0.16400
O1306       O  0.63752094  0.49131715  0.74457288    -0.60600
H1307       H  0.63539150  0.50989032  0.73011035     0.43400
H1308       H  0.68886315  0.53018452  0.89975979     0.43300
C1309       C  0.97549117  0.11325582  0.71275008    -0.05700
C1310       C  0.96111647  0.09761485  0.74767474    -0.33100
C1311       C  0.98351576  0.10772940  0.77968973     0.36100
C1312       C  0.02104780  0.13388855  0.77716479    -0.06100
C1313       C  0.03589186  0.14686483  0.74178387    -0.33000
C1314       C  0.01369788  0.13670560  0.70984639     0.36000
H1315       H  0.93228216  0.07864983  0.75056876     0.16400
O1316       O  0.96844696  0.09194190  0.81342662    -0.60500
H1317       H  0.06459393  0.16650597  0.73902498     0.16400
O1318       O  0.02976888  0.15108585  0.67604463    -0.60600
H1319       H  0.03569143  0.13326875  0.66531949     0.43400
H1320       H  0.95536245  0.10415709  0.82219728     0.43300
C1321       C  0.88185726  0.90087770  0.58151848    -0.05700
C1322       C  0.86089977  0.90469223  0.60959845    -0.33100
C1323       C  0.86645367  0.93924431  0.61899674     0.36100
C1324       C  0.89261884  0.97016355  0.59958122    -0.06100
C1325       C  0.91317588  0.96620631  0.57156357    -0.33000
C1326       C  0.90822955  0.93221435  0.56260422     0.36000
H1327       H  0.84065825  0.88101007  0.62463569     0.16400
O1328       O  0.84499280  0.94220694  0.64556616    -0.60500
H1329       H  0.93275605  0.98971546  0.55574040     0.16400
O1330       O  0.92854293  0.92981002  0.53424870    -0.60600
H1331       H  0.95295459  0.93899462  0.54529680     0.43400
H1332       H  0.85886809  0.94772908  0.66932997     0.43300
C1333       C  0.76806101  0.34145157  0.72848900    -0.05700
C1334       C  0.79120511  0.37068267  0.70511784    -0.33100
C1335       C  0.79816340  0.40614111  0.71223566     0.36100
C1336       C  0.78200265  0.41294327  0.74322940    -0.06100
C1337       C  0.75995597  0.38407729  0.76720281    -0.33000
C1338       C  0.75288417  0.34880473  0.76017994     0.36000
H1339       H  0.80357157  0.36601809  0.68089109     0.16400
O1340       O  0.81864817  0.43327269  0.68724624    -0.60500
H1341       H  0.74727923  0.38868881  0.79121594     0.16400
O1342       O  0.73148101  0.32191732  0.78505304    -0.60600
H1343       H  0.70620808  0.31266464  0.77652597     0.43400
H1344       H  0.84416802  0.44249311  0.69470099     0.43300
C1345       C  0.81160440  0.17197517  0.67181319    -0.05700
C1346       C  0.79767774  0.13440423  0.67536624    -0.33100
C1347       C  0.81867627  0.11893300  0.66638948     0.36100
C1348       C  0.85488973  0.14118400  0.65403774    -0.06100
C1349       C  0.86912438  0.17896513  0.65147190    -0.33000
C1350       C  0.84794672  0.19437328  0.66032668     0.36000
H1351       H  0.76995132  0.11660407  0.68434229     0.16400
O1352       O  0.80331675  0.08193834  0.66998239    -0.60500
H1353       H  0.89675729  0.19676669  0.64225352     0.16400
O1354       O  0.86316110  0.23140763  0.65765460    -0.60600
H1355       H  0.87624650  0.24146292  0.68174571     0.43400
H1356       H  0.78918667  0.07128844  0.64655344     0.43300
C1357       C  0.69036641  0.13943157  0.80956794    -0.05700
C1358       C  0.70255638  0.15107584  0.84650236    -0.33100
C1359       C  0.67790338  0.13954457  0.87636055     0.36100
C1360       C  0.64047719  0.11729415  0.86926973    -0.06100
C1361       C  0.62898791  0.10131773  0.83368944    -0.33000
C1362       C  0.65372552  0.11149661  0.80406539     0.36000
H1363       H  0.73057375  0.17183020  0.85180999     0.16400
O1364       O  0.69004422  0.15472107  0.91122114    -0.60500
H1365       H  0.60028063  0.08383457  0.82784556     0.16400
O1366       O  0.64098468  0.09656938  0.76914856    -0.60600
H1367       H  0.62807312  0.10862912  0.75955542     0.43400
H1368       H  0.69090351  0.13559474  0.92597517     0.43300
C1369       C  0.85441444  0.30419935  0.77537702    -0.05700
C1370       C  0.85911105  0.29655387  0.81248599    -0.33100
C1371       C  0.87228307  0.32401921  0.84012545     0.36100
C1372       C  0.88010620  0.35933248  0.83065599    -0.06100
C1373       C  0.88127064  0.36810914  0.79260458    -0.33000
C1374       C  0.86958978  0.34092079  0.76482337     0.36000
H1375       H  0.84781882  0.26849514  0.82107643     0.16400
O1376       O  0.87208799  0.31480259  0.87698906    -0.60500
H1377       H  0.88730598  0.39512918  0.78477517     0.16400
O1378       O  0.86654666  0.34952635  0.72853338    -0.60600
H1379       H  0.88825232  0.35225083  0.71562322     0.43400
H1380       H  0.84625595  0.30182082  0.88462580     0.43300
C1381       C  0.14422931  0.02646413  0.71823880    -0.05700
C1382       C  0.10909140  0.99527824  0.71740968    -0.33100
C1383       C  0.09784337  0.96790416  0.74475183     0.36100
C1384       C  0.12221775  0.97090240  0.77298597    -0.06100
C1385       C  0.15652677  0.00318621  0.77490884    -0.33000
C1386       C  0.16732196  0.03089353  0.74826572     0.36000
H1387       H  0.09104265  0.99114454  0.69417974     0.16400
O1388       O  0.06388209  0.93749296  0.74219884    -0.60500
H1389       H  0.17563533  0.00663121  0.79672661     0.16400
O1390       O  0.20193427  0.06041431  0.74965179    -0.60600
H1391       H  0.19996765  0.07934947  0.76385493     0.43400
H1392       H  0.06718014  0.91932610  0.72802977     0.43300
C1393       C  0.08073380  0.96879443  0.58289764    -0.05700
C1394       C  0.07335864  0.94833366  0.61589741    -0.33100
C1395       C  0.03896037  0.91759034  0.62193360     0.36100
C1396       C  0.01191787  0.90645223  0.59419974    -0.06100
C1397       C  0.01958537  0.92701114  0.56120534    -0.33000
C1398       C  0.05349420  0.95799349  0.55555825     0.36000
H1399       H  0.09409761  0.95662649  0.63731691     0.16400
O1400       O  0.03267058  0.89778978  0.65406326    -0.60500
H1401       H  0.99922987  0.91873831  0.53934583     0.16400
O1402       O  0.05990411  0.97726612  0.52296771    -0.60600
H1403       H  0.07062709  0.96713473  0.50558405     0.43400
H1404       H  0.02199281  0.90765760  0.67182879     0.43300
C1405       C  0.08558645  0.10308489  0.60353236    -0.05700
C1406       C  0.08799104  0.13494864  0.58967231    -0.33100
C1407       C  0.05664032  0.13618406  0.58210259     0.36100
C1408       C  0.02237931  0.10475054  0.58716795    -0.06100
C1409       C  0.02016492  0.07319890  0.60198862    -0.33000
C1410       C  0.05149025  0.07228104  0.61024937     0.36000
H1411       H  0.11426929  0.15854031  0.58365883     0.16400
O1412       O  0.05978344  0.16737986  0.56769322    -0.60500
H1413       H  0.99399787  0.04897901  0.60689802     0.16400
O1414       O  0.04854236  0.04065518  0.62311364    -0.60600
H1415       H  0.04637327  0.02625094  0.60028468     0.43400
H1416       H  0.06373582  0.18328569  0.58975436     0.43300
C1417       C  0.57883730  0.34751388  0.73922058    -0.05700
C1418       C  0.60903397  0.35029296  0.75772420    -0.33100
C1419       C  0.64372391  0.37956482  0.75122343     0.36100
C1420       C  0.64894131  0.40654844  0.72541510    -0.06100
C1421       C  0.61905117  0.40404409  0.70662824    -0.33000
C1422       C  0.58397525  0.37484562  0.71362652     0.36000
H1423       H  0.60584503  0.32953368  0.77729339     0.16400
O1424       O  0.67263450  0.38142078  0.76987347    -0.60500
H1425       H  0.62276977  0.42538164  0.68761671     0.16400
O1426       O  0.55525124  0.37270217  0.69441339    -0.60600
H1427       H  0.54698557  0.38630884  0.71010088     0.43400
H1428       H  0.67180849  0.38991534  0.79562225     0.43300
C1429       C  0.57600517  0.21407483  0.71619894    -0.05700
C1430       C  0.58703193  0.20434455  0.68319095    -0.33100
C1431       C  0.61616362  0.19801268  0.68366548     0.36100
C1432       C  0.63511440  0.20183701  0.71747946    -0.06100
C1433       C  0.62394526  0.21165375  0.75025919    -0.33000
C1434       C  0.59516455  0.21794395  0.74986904     0.36000
H1435       H  0.57270723  0.20104793  0.65707239     0.16400
O1436       O  0.62619184  0.18885021  0.65079546    -0.60500
H1437       H  0.63790437  0.21506887  0.77666898     0.16400
O1438       O  0.58611778  0.22794429  0.78292040    -0.60600
H1439       H  0.60114056  0.25494138  0.78382553     0.43400
H1440       H  0.61058258  0.16198547  0.64873907     0.43300
C1441       C  0.36805070  0.18065741  0.66809395    -0.05700
C1442       C  0.35262438  0.14421433  0.65573401    -0.33100
C1443       C  0.31555401  0.12268738  0.64704956     0.36100
C1444       C  0.29259692  0.13705384  0.65120823    -0.06100
C1445       C  0.30810068  0.17363569  0.66314532    -0.33000
C1446       C  0.34522223  0.19526926  0.67152122     0.36000
H1447       H  0.36943169  0.13222763  0.65246784     0.16400
O1448       O  0.30229763  0.08779064  0.63406079    -0.60500
H1449       H  0.29133288  0.18568342  0.66627091     0.16400
O1450       O  0.35868973  0.23058787  0.68324831    -0.60600
H1451       H  0.35566231  0.22925367  0.71085408     0.43400
H1452       H  0.30402767  0.08986306  0.60634348     0.43300
C1453       C  0.44576164  0.28718014  0.81711690    -0.05700
C1454       C  0.44370793  0.27624742  0.85446897    -0.33100
C1455       C  0.45794026  0.30219605  0.88354190     0.36100
C1456       C  0.47498606  0.33969687  0.87501572    -0.06100
C1457       C  0.47099065  0.34968671  0.83860390    -0.33000
C1458       C  0.45594481  0.32356037  0.80977914     0.36000
H1459       H  0.43564914  0.24826233  0.86055738     0.16400
O1460       O  0.45942362  0.29090274  0.91912353    -0.60500
H1461       H  0.48339292  0.37824404  0.83147617     0.16400
O1462       O  0.45785014  0.33509089  0.77357251    -0.60600
H1463       H  0.43256577  0.32753316  0.76665549     0.43400
H1464       H  0.47949921  0.28576568  0.91875870     0.43300
C1465       C  0.45315944  0.13452661  0.78400049    -0.05700
C1466       C  0.47563444  0.12029597  0.77615698    -0.33100
C1467       C  0.48808051  0.10738164  0.80521339     0.36100
C1468       C  0.47720516  0.10774294  0.84251672    -0.06100
C1469       C  0.44941541  0.11545960  0.84877524    -0.33000
C1470       C  0.43757922  0.12901509  0.81992682     0.36000
H1471       H  0.48749497  0.12361251  0.74857342     0.16400
O1472       O  0.51325446  0.09757352  0.79733359    -0.60500
H1473       H  0.43984815  0.11520136  0.87695942     0.16400
O1474       O  0.41448656  0.14132342  0.82845224    -0.60600
H1475       H  0.39099487  0.12342205  0.81671864     0.43400
H1476       H  0.53635887  0.12078822  0.79308245     0.43300
C1477       C  0.81696408  0.45615299  0.54759982    -0.05700
C1478       C  0.82722156  0.49298608  0.55316409    -0.33100
C1479       C  0.81185114  0.50352277  0.58163390     0.36100
C1480       C  0.78601410  0.47739383  0.60591724    -0.06100
C1481       C  0.77519322  0.44050804  0.60033236    -0.33000
C1482       C  0.78997912  0.42973060  0.57112422     0.36000
H1483       H  0.84753899  0.51401380  0.53541704     0.16400
O1484       O  0.82435436  0.53989009  0.58731460    -0.60500
H1485       H  0.75630507  0.42016172  0.61965928     0.16400
O1486       O  0.77867113  0.39351839  0.56669876    -0.60600
H1487       H  0.79520576  0.38949744  0.58266587     0.43400
H1488       H  0.80719026  0.54463293  0.57353573     0.43300
C1489       C  0.88210707  0.51433628  0.32997712    -0.05700
C1490       C  0.88102395  0.54667026  0.33330335    -0.33100
C1491       C  0.87014616  0.55958460  0.30290370     0.36100
C1492       C  0.86022660  0.54015289  0.26874594    -0.06100
C1493       C  0.86932175  0.51321046  0.26314567    -0.33000
C1494       C  0.87944581  0.49962078  0.29366191     0.36000
H1495       H  0.88398162  0.55934098  0.36054027     0.16400
O1496       O  0.86249410  0.58669118  0.30894557    -0.60500
H1497       H  0.86224159  0.49813004  0.23685728     0.16400
O1498       O  0.88276148  0.46958658  0.28832882    -0.60600
H1499       H  0.85760098  0.44860917  0.28589844     0.43400
H1500       H  0.88531791  0.60963651  0.30315751     0.43300
C1501       C  0.84284204  0.29673908  0.31477671    -0.05700
C1502       C  0.87243672  0.33242326  0.30956460    -0.33100
C1503       C  0.88300391  0.35898467  0.33781417     0.36100
C1504       C  0.86543622  0.34971704  0.37269023    -0.06100
C1505       C  0.84022790  0.31289115  0.37997501    -0.33000
C1506       C  0.82861067  0.28646168  0.35127784     0.36000
H1507       H  0.88451591  0.34117873  0.28210097     0.16400
O1508       O  0.90753177  0.39474930  0.32967595    -0.60500
H1509       H  0.82589299  0.30541840  0.40644634     0.16400
O1510       O  0.80030320  0.25195736  0.35814977    -0.60600
H1511       H  0.81169047  0.23859094  0.36825032     0.43400
H1512       H  0.89342631  0.40386940  0.31644863     0.43300
C1513       C  0.96174298  0.48217437  0.47659617    -0.05700
C1514       C  0.98937449  0.51575004  0.46291253    -0.33100
C1515       C  0.02583182  0.52917143  0.47213895     0.36100
C1516       C  0.03579046  0.50880742  0.49521559    -0.06100
C1517       C  0.00835654  0.47473289  0.50808643    -0.33000
C1518       C  0.97174724  0.46143906  0.49915625     0.36000
H1519       H  0.98278337  0.53211593  0.44523574     0.16400
O1520       O  0.05161478  0.56206986  0.45767110    -0.60500
H1521       H  0.01516146  0.45862589  0.52592425     0.16400
O1522       O  0.94602731  0.42843200  0.51342057    -0.60600
H1523       H  0.94397998  0.41004928  0.49488960     0.43400
H1524       H  0.05121194  0.58074540  0.47399968     0.43300
C1525       C  0.13946683  0.45486462  0.71053929    -0.05700
C1526       C  0.12911888  0.43649775  0.67577497    -0.33100
C1527       C  0.11621148  0.44901238  0.64665530     0.36100
C1528       C  0.11510484  0.48118946  0.65179462    -0.06100
C1529       C  0.11985483  0.49579131  0.68821005    -0.33000
C1530       C  0.13145304  0.48250085  0.71763350     0.36000
H1531       H  0.13541483  0.41545986  0.66962376     0.16400
O1532       O  0.11104774  0.43350990  0.61168280    -0.60500
H1533       H  0.11923370  0.52059540  0.69275954     0.16400
O1534       O  0.14187849  0.50158199  0.75089765    -0.60600
H1535       H  0.11921304  0.49231448  0.76547977     0.43400
H1536       H  0.08446400  0.41677048  0.60942167     0.43300
C1537       C  0.12831056  0.64133515  0.60903034    -0.05700
C1538       C  0.15440085  0.67795318  0.60159130    -0.33100
C1539       C  0.16850204  0.70393292  0.63077786     0.36100
C1540       C  0.15545568  0.69351839  0.66762847    -0.06100
C1541       C  0.12439703  0.65882869  0.67296523    -0.33000
C1542       C  0.11117985  0.63268918  0.64416340     0.36000
H1543       H  0.16759160  0.68542183  0.57449662     0.16400
O1544       O  0.19710014  0.73825162  0.62359632    -0.60500
H1545       H  0.11290420  0.65026154  0.70068240     0.16400
O1546       O  0.08481749  0.59753035  0.65211529    -0.60600
H1547       H  0.06154646  0.59660060  0.64778102     0.43400
H1548       H  0.21852806  0.73542181  0.62081559     0.43300
C1549       C  0.53514439  0.34910257  0.55074367    -0.05700
C1550       C  0.56063967  0.34895892  0.57538831    -0.33100
C1551       C  0.54998105  0.32121948  0.60207044     0.36100
C1552       C  0.51357257  0.29242203  0.60387844    -0.06100
C1553       C  0.48859995  0.29133519  0.57792968    -0.33000
C1554       C  0.49896487  0.31919736  0.55160658     0.36000
H1555       H  0.58861044  0.37109002  0.57493940     0.16400
O1556       O  0.57484026  0.32377411  0.62797108    -0.60500
H1557       H  0.46029889  0.27009998  0.57972074     0.16400
O1558       O  0.47306601  0.31738659  0.52762071    -0.60600
H1559       H  0.46923308  0.29871547  0.50852594     0.43400
H1560       H  0.58339948  0.30769659  0.61821039     0.43300
C1561       C  0.67999449  0.42206977  0.44150660    -0.05700
C1562       C  0.70646331  0.44755885  0.46640161    -0.33100
C1563       C  0.74345632  0.46084152  0.46074727     0.36100
C1564       C  0.75485258  0.44913552  0.42935728    -0.06100
C1565       C  0.72835940  0.42294453  0.40499955    -0.33000
C1566       C  0.69136959  0.40910395  0.41106154     0.36000
H1567       H  0.69861559  0.45819175  0.48991800     0.16400
O1568       O  0.76823662  0.48623466  0.48534984    -0.60500
H1569       H  0.73622451  0.41263452  0.38120850     0.16400
O1570       O  0.66682714  0.38422059  0.38592157    -0.60600
H1571       H  0.66236353  0.36022004  0.39448648     0.43400
H1572       H  0.76493846  0.47285419  0.50904620     0.43300
C1573       C  0.65326036  0.51154956  0.38832194    -0.05700
C1574       C  0.64444822  0.52285504  0.35537647    -0.33100
C1575       C  0.66884819  0.53615904  0.32537445     0.36100
C1576       C  0.70284258  0.53818194  0.32818601    -0.06100
C1577       C  0.71371595  0.53265749  0.36351533    -0.33000
C1578       C  0.68922535  0.51966948  0.39355871     0.36000
H1579       H  0.61690245  0.51674817  0.35090419     0.16400
O1580       O  0.65746242  0.54320818  0.29216739    -0.60500
H1581       H  0.73965163  0.53439690  0.36681237     0.16400
O1582       O  0.69880660  0.50932053  0.42582173    -0.60600
H1583       H  0.70922253  0.53110211  0.44245171     0.43400
H1584       H  0.63992402  0.51897074  0.28126330     0.43300
C1585       C  0.49104747  0.35851254  0.33274636    -0.05700
C1586       C  0.45798161  0.32503822  0.33562918    -0.33100
C1587       C  0.44524486  0.29967915  0.30592880     0.36100
C1588       C  0.46507489  0.30785809  0.27243614    -0.06100
C1589       C  0.49405581  0.34363709  0.26717099    -0.33000
C1590       C  0.50741904  0.36879985  0.29707809     0.36000
H1591       H  0.44416141  0.31652969  0.36231956     0.16400
O1592       O  0.41661442  0.26512769  0.31190222    -0.60500
H1593       H  0.50991941  0.35035664  0.24167431     0.16400
O1594       O  0.53915936  0.40130910  0.29226834    -0.60600
H1595       H  0.53161494  0.41899044  0.28571335     0.43400
H1596       H  0.39500759  0.26557552  0.30298184     0.43300
C1597       C  0.48435476  0.51800105  0.49791126    -0.05700
C1598       C  0.51879310  0.52669806  0.51093987    -0.33100
C1599       C  0.53326012  0.50446206  0.50220720     0.36100
C1600       C  0.51330167  0.47251127  0.47995578    -0.06100
C1601       C  0.47953846  0.46474548  0.46565368    -0.33000
C1602       C  0.46504975  0.48688222  0.47447173     0.36000
H1603       H  0.53428016  0.55037141  0.52884620     0.16400
O1604       O  0.56679309  0.51410649  0.51621156    -0.60500
H1605       H  0.46380592  0.44095614  0.44796831     0.16400
O1606       O  0.43216405  0.47814611  0.45927467    -0.60600
H1607       H  0.41377699  0.45806017  0.47493853     0.43400
H1608       H  0.58419135  0.52936184  0.49649739     0.43300
C1609       C  0.31249645  0.55384029  0.55244141    -0.05700
C1610       C  0.30527193  0.56780801  0.58489220    -0.33100
C1611       C  0.27137175  0.56379651  0.59069784     0.36100
C1612       C  0.24363967  0.54521472  0.56400571    -0.06100
C1613       C  0.25049673  0.53083172  0.53152749    -0.33000
C1614       C  0.28483438  0.53509075  0.52561384     0.36000
H1615       H  0.32604258  0.58169812  0.60622294     0.16400
O1616       O  0.26506928  0.57696829  0.62327237    -0.60500
H1617       H  0.22952574  0.51708720  0.51039189     0.16400
O1618       O  0.29079019  0.52026652  0.49415128    -0.60600
H1619       H  0.28430260  0.49527071  0.50141970     0.43400
H1620       H  0.27951674  0.60381062  0.62131267     0.43300
C1621       C  0.51244318  0.62218360  0.65585461    -0.05700
C1622       C  0.50201258  0.61285524  0.69337833    -0.33100
C1623       C  0.51701901  0.63934703  0.72196861     0.36100
C1624       C  0.54147435  0.67604838  0.71278458    -0.06100
C1625       C  0.55629247  0.68389400  0.67651313    -0.33000
C1626       C  0.54233243  0.65705482  0.64818019     0.36000
H1627       H  0.47913526  0.58616867  0.69988157     0.16400
O1628       O  0.50215762  0.63048699  0.75712637    -0.60500
H1629       H  0.57495849  0.71194606  0.66878955     0.16400
O1630       O  0.55348455  0.66717584  0.61194233    -0.60600
H1631       H  0.57248282  0.66089799  0.60773874     0.43400
H1632       H  0.51902024  0.62597159  0.77192291     0.43300
C1633       C  0.34734949  0.46923679  0.61134182    -0.05700
C1634       C  0.35512234  0.45961456  0.64612001    -0.33100
C1635       C  0.32932940  0.44644764  0.67483017     0.36100
C1636       C  0.29560515  0.44439530  0.66952039    -0.06100
C1637       C  0.28580172  0.44813930  0.63298331    -0.33000
C1638       C  0.31117489  0.45991302  0.60380602     0.36000
H1639       H  0.38241402  0.46576412  0.65233932     0.16400
O1640       O  0.33926151  0.44018438  0.70927977    -0.60500
H1641       H  0.25979132  0.44573597  0.62776184     0.16400
O1642       O  0.30174306  0.46760372  0.56982324    -0.60600
H1643       H  0.29674384  0.44677543  0.55327842     0.43400
H1644       H  0.33181984  0.41406498  0.70886349     0.43300
C1645       C  0.43885306  0.68134826  0.57515945    -0.05700
C1646       C  0.40724522  0.68041197  0.58767031    -0.33100
C1647       C  0.40068436  0.70851797  0.57958821     0.36100
C1648       C  0.42594716  0.73882197  0.55857912    -0.06100
C1649       C  0.45746215  0.73971990  0.54580954    -0.33000
C1650       C  0.46428390  0.71172231  0.55439308     0.36000
H1651       H  0.38691825  0.65735006  0.60341807     0.16400
O1652       O  0.36928176  0.70581882  0.59238909    -0.60500
H1653       H  0.47736489  0.76256145  0.52956329     0.16400
O1654       O  0.49540445  0.71397437  0.54138492    -0.60600
H1655       H  0.51414032  0.72836565  0.56068551     0.43400
H1656       H  0.35202414  0.69519261  0.57129049     0.43300
C1657       C  0.24772344  0.68049587  0.54265034    -0.05700
C1658       C  0.25032030  0.70749560  0.51844657    -0.33100
C1659       C  0.27820474  0.74408763  0.52326565     0.36100
C1660       C  0.30371673  0.75359362  0.55260438    -0.06100
C1661       C  0.30099357  0.72617781  0.57626916    -0.33000
C1662       C  0.27356608  0.69009948  0.57139650     0.36000
H1663       H  0.22976590  0.70057009  0.49709279     0.16400
O1664       O  0.27877893  0.77069688  0.50131136    -0.60500
H1665       H  0.32048729  0.73256035  0.59865546     0.16400
O1666       O  0.27173482  0.66434398  0.59558701    -0.60600
H1667       H  0.28380529  0.65308235  0.58233988     0.43400
H1668       H  0.27808383  0.76288151  0.47496765     0.43300
C1669       C  0.52054869  0.86373144  0.60814031    -0.05700
C1670       C  0.52873394  0.88205979  0.64270594    -0.33100
C1671       C  0.54205263  0.87102710  0.67253527     0.36100
C1672       C  0.54587078  0.84010329  0.66831083    -0.06100
C1673       C  0.54353323  0.82606811  0.63196228    -0.33000
C1674       C  0.53151873  0.83821931  0.60182303     0.36000
H1675       H  0.52055388  0.90185107  0.64802405     0.16400
O1676       O  0.54631141  0.88749943  0.70685867    -0.60500
H1677       H  0.54714540  0.80299642  0.62754934     0.16400
O1678       O  0.52458622  0.82045349  0.56794025    -0.60600
H1679       H  0.54772456  0.83290869  0.55441732     0.43400
H1680       H  0.57227546  0.90681845  0.70813410     0.43300
C1681       C  0.37049481  0.87488387  0.65310294    -0.05700
C1682       C  0.33706492  0.87345963  0.64962588    -0.33100
C1683       C  0.31230738  0.86147930  0.67945803     0.36100
C1684       C  0.32104444  0.85152870  0.71367556    -0.06100
C1685       C  0.35680671  0.85960864  0.71930035    -0.33000
C1686       C  0.38125691  0.87039460  0.68922346     0.36000
H1687       H  0.32815736  0.87736120  0.62252994     0.16400
O1688       O  0.27771384  0.85419139  0.67305496    -0.60500
H1689       H  0.36401229  0.85186962  0.74535968     0.16400
O1690       O  0.41397246  0.87257054  0.69466423    -0.60600
H1691       H  0.40839808  0.84701212  0.69507073     0.43400
H1692       H  0.27845946  0.87725249  0.67914664     0.43300
C1693       C  0.64497769  0.18090367  0.54082834    -0.05700
C1694       C  0.67271246  0.21785492  0.54352707    -0.33100
C1695       C  0.69922314  0.23013135  0.57227251     0.36100
C1696       C  0.69909251  0.20500076  0.59785529    -0.06100
C1697       C  0.67079452  0.16825495  0.59514612    -0.33000
C1698       C  0.64392951  0.15636002  0.56743818     0.36000
H1699       H  0.67443288  0.23698970  0.52263222     0.16400
O1700       O  0.72554627  0.26631077  0.57431401    -0.60500
H1701       H  0.66945018  0.14822819  0.61462031     0.16400
O1702       O  0.61826272  0.11996410  0.56487855    -0.60600
H1703       H  0.59698598  0.11725262  0.57863382     0.43400
H1704       H  0.74507656  0.26898381  0.55739188     0.43300
C1705       C  0.74295764  0.31837103  0.42170762    -0.05700
C1706       C  0.71431920  0.31310546  0.39822737    -0.33100
C1707       C  0.68553753  0.27799116  0.38963862     0.36100
C1708       C  0.68510587  0.24699083  0.40412587    -0.06100
C1709       C  0.71380978  0.25223194  0.42733267    -0.33000
C1710       C  0.74227526  0.28730859  0.43640465     0.36000
H1711       H  0.71428817  0.33628650  0.38607554     0.16400
O1712       O  0.65841657  0.27435831  0.36628720    -0.60500
H1713       H  0.71380487  0.22901752  0.43943104     0.16400
O1714       O  0.76976047  0.29066114  0.45891611    -0.60600
H1715       H  0.76161946  0.29067592  0.48493340     0.43400
H1716       H  0.64240552  0.27912815  0.38235375     0.43300
C1717       C  0.54757288  0.23093238  0.43265552    -0.05700
C1718       C  0.54910510  0.24889946  0.46636108    -0.33100
C1719       C  0.54263692  0.27796154  0.46659697     0.36100
C1720       C  0.53399975  0.28902629  0.43288992    -0.06100
C1721       C  0.53089548  0.27006565  0.39967749    -0.33000
C1722       C  0.53777603  0.24160407  0.39914951     0.36000
H1723       H  0.55633859  0.24116231  0.49236779     0.16400
O1724       O  0.54680434  0.29654527  0.49947769    -0.60500
H1725       H  0.52440714  0.27827948  0.37348534     0.16400
O1726       O  0.53545479  0.22500531  0.36529560    -0.60600
H1727       H  0.55974308  0.23981165  0.35376606     0.43400
H1728       H  0.57263834  0.31631356  0.50006098     0.43300
C1729       C  0.53419734  0.03312520  0.48480272    -0.05700
C1730       C  0.50627086  0.02381349  0.51093580    -0.33100
C1731       C  0.48293165  0.98771673  0.52183691     0.36100
C1732       C  0.48674002  0.95928694  0.50652693    -0.06100
C1733       C  0.51575176  0.96870296  0.48152149    -0.33000
C1734       C  0.53926841  0.00516722  0.47061963     0.36000
H1735       H  0.50184696  0.04474373  0.52254025     0.16400
O1736       O  0.45555524  0.98062078  0.54642310    -0.60500
H1737       H  0.51972859  0.94763562  0.46953027     0.16400
O1738       O  0.56599738  0.01280303  0.44497652    -0.60600
H1739       H  0.55485115  0.01135878  0.42016812     0.43400
H1740       H  0.46620705  0.98303002  0.57172462     0.43300
C1741       C  0.68132385  0.13434183  0.26553216    -0.05700
C1742       C  0.68926700  0.12648742  0.30121736    -0.33100
C1743       C  0.66360757  0.11508701  0.33013705     0.36100
C1744       C  0.62944542  0.11123065  0.32323922    -0.06100
C1745       C  0.61963423  0.11295069  0.28601620    -0.33000
C1746       C  0.64513889  0.12375179  0.25705673     0.36000
H1747       H  0.71699350  0.13466312  0.30826652     0.16400
O1748       O  0.67421148  0.11348361  0.36604968    -0.60500
H1749       H  0.59355342  0.11016323  0.28010876     0.16400
O1750       O  0.63637817  0.13099716  0.22244762    -0.60600
H1751       H  0.62863644  0.10858454  0.20735566     0.43400
H1752       H  0.68730560  0.13905146  0.37536467     0.43300
C1753       C  0.47424011  0.11070080  0.37243289    -0.05700
C1754       C  0.46508482  0.13726993  0.38094132    -0.33100
C1755       C  0.45365331  0.15178985  0.35256259     0.36100
C1756       C  0.45059977  0.13909303  0.31534710    -0.06100
C1757       C  0.45189743  0.10710613  0.30910862    -0.33000
C1758       C  0.46384913  0.09303210  0.33736025     0.36000
H1759       H  0.47193492  0.15073688  0.40812116     0.16400
O1760       O  0.45046956  0.18146552  0.36066164    -0.60500
H1761       H  0.44800602  0.09554384  0.28114398     0.16400
O1762       O  0.46990460  0.06522720  0.32887848    -0.60600
H1763       H  0.44778573  0.04276806  0.33729779     0.43400
H1764       H  0.42438999  0.17129410  0.36602464     0.43300
C1765       C  0.11773667  0.13825198  0.27260753    -0.05700
C1766       C  0.13981639  0.16377752  0.24595130    -0.33100
C1767       C  0.15668489  0.15455665  0.21803023     0.36100
C1768       C  0.15142295  0.11894237  0.21622599    -0.06100
C1769       C  0.12705595  0.09262246  0.24122315    -0.33000
C1770       C  0.11085389  0.10229581  0.26975409     0.36000
H1771       H  0.14601683  0.19173039  0.24824957     0.16400
O1772       O  0.17912062  0.18100917  0.19324849    -0.60500
H1773       H  0.12193734  0.06501854  0.23988576     0.16400
O1774       O  0.08934603  0.07680644  0.29563474    -0.60600
H1775       H  0.10592303  0.07120707  0.30945368     0.43400
H1776       H  0.16285275  0.18503509  0.17681272     0.43300
C1777       C  0.96268826  0.17272391  0.50154160    -0.05700
C1778       C  0.99775420  0.20035056  0.51205090    -0.33100
C1779       C  0.02622341  0.21383246  0.48608943     0.36100
C1780       C  0.01935984  0.20006333  0.44905178    -0.06100
C1781       C  0.98304557  0.17832361  0.43713472    -0.33000
C1782       C  0.95481492  0.16409713  0.46328541     0.36000
H1783       H  0.00427033  0.20737799  0.54144287     0.16400
O1784       O  0.06109880  0.23646308  0.49841992    -0.60500
H1785       H  0.97679174  0.16777361  0.40866397     0.16400
O1786       O  0.92072619  0.13740281  0.45218189    -0.60600
H1787       H  0.91055837  0.15033970  0.43851892     0.43400
H1788       H  0.06431072  0.26115867  0.49896627     0.43300
C1789       C  0.20970111  0.18322830  0.53594348    -0.05700
C1790       C  0.19210067  0.20194992  0.54713726    -0.33100
C1791       C  0.17921474  0.21641853  0.52020069     0.36100
C1792       C  0.18534179  0.21364246  0.48190366    -0.06100
C1793       C  0.20962531  0.20226022  0.47175769    -0.33000
C1794       C  0.22141477  0.18656175  0.49840454     0.36000
H1795       H  0.18362657  0.20079136  0.57596914     0.16400
O1796       O  0.15700431  0.22916228  0.53106564    -0.60500
H1797       H  0.21465467  0.19993215  0.44235522     0.16400
O1798       O  0.23981201  0.16994645  0.48636718    -0.60600
H1799       H  0.26547364  0.18701895  0.49336309     0.43400
H1800       H  0.13254345  0.20722123  0.53366747     0.43300
C1801       C  0.17636974  0.53189404  0.43065175    -0.05700
C1802       C  0.21378801  0.54709193  0.42476573    -0.33100
C1803       C  0.22662267  0.53194472  0.39796103     0.36100
C1804       C  0.20183648  0.50082852  0.37698285    -0.06100
C1805       C  0.16442520  0.48649832  0.38261126    -0.33000
C1806       C  0.15179326  0.50172436  0.40892668     0.36000
H1807       H  0.23307917  0.56959287  0.44225684     0.16400
O1808       O  0.26326544  0.54725012  0.39321317    -0.60500
H1809       H  0.14449861  0.46297694  0.36671503     0.16400
O1810       O  0.11517634  0.48550543  0.41485019    -0.60600
H1811       H  0.10676346  0.49716482  0.39676490     0.43400
H1812       H  0.27073509  0.53537182  0.41210578     0.43300
C1813       C  0.17670223  0.35573149  0.30577647    -0.05700
C1814       C  0.20078055  0.34375882  0.31526315    -0.33100
C1815       C  0.18782954  0.30741344  0.32580328     0.36100
C1816       C  0.15018152  0.28262495  0.32815941    -0.06100
C1817       C  0.12637560  0.29466070  0.31758617    -0.33000
C1818       C  0.13923168  0.33047800  0.30627077     0.36000
H1819       H  0.22978299  0.36270480  0.31462687     0.16400
O1820       O  0.21218524  0.29696009  0.33501466    -0.60500
H1821       H  0.09727281  0.27635725  0.31861713     0.16400
O1822       O  0.11471999  0.34103594  0.29811122    -0.60600
H1823       H  0.10736767  0.33337887  0.27167929     0.43400
H1824       H  0.21844196  0.28989850  0.31087624     0.43300
C1825       C  0.35513692  0.46749063  0.14682736    -0.05700
C1826       C  0.36870891  0.48153376  0.18281054    -0.33100
C1827       C  0.34519083  0.47161534  0.21342514     0.36100
C1828       C  0.30782936  0.44757986  0.20800178    -0.06100
C1829       C  0.29563905  0.42818824  0.17416081    -0.33000
C1830       C  0.31905190  0.43789196  0.14346174     0.36000
H1831       H  0.39646581  0.50364344  0.18643641     0.16400
O1832       O  0.35773660  0.49068483  0.24648548    -0.60500
H1833       H  0.26691207  0.40925554  0.16984476     0.16400
O1834       O  0.30523406  0.42119662  0.10943439    -0.60600
H1835       H  0.29006140  0.43102558  0.10045232     0.43400
H1836       H  0.37096250  0.48024823  0.25904248     0.43300
C1837       C  0.15063110  0.44073996  0.15951024    -0.05700
C1838       C  0.11921735  0.44312911  0.16301966    -0.33100
C1839       C  0.10823596  0.45724391  0.13384281     0.36100
C1840       C  0.12772703  0.46768679  0.10007955    -0.06100
C1841       C  0.15436742  0.45836806  0.09405695    -0.33000
C1842       C  0.16582573  0.44480875  0.12345359     0.36000
H1843       H  0.10601333  0.43886812  0.18995873     0.16400
O1844       O  0.08150513  0.46518909  0.14029797    -0.60500
H1845       H  0.16984761  0.46638841  0.06826953     0.16400
O1846       O  0.19487994  0.44027565  0.11778359    -0.60600
H1847       H  0.18412177  0.41396365  0.11200357     0.43400
H1848       H  0.09353197  0.48879394  0.15409457     0.43300
C1849       C  0.02834676  0.87755896  0.26860221    -0.05700
C1850       C  0.99791554  0.88188542  0.27028038    -0.33100
C1851       C  0.97166850  0.86849161  0.24134891     0.36100
C1852       C  0.97481716  0.84897371  0.21105253    -0.06100
C1853       C  0.00637083  0.84664879  0.20857428    -0.33000
C1854       C  0.03296579  0.86088508  0.23677397     0.36000
H1855       H  0.99358109  0.89406266  0.29501027     0.16400
O1856       O  0.94171514  0.87188526  0.24464073    -0.60500
H1857       H  0.00986125  0.83237579  0.18521265     0.16400
O1858       O  0.06200422  0.85584057  0.23431606    -0.60600
H1859       H  0.05348942  0.83143560  0.24512792     0.43400
H1860       H  0.94884780  0.89574669  0.23323880     0.43300
C1861       C  0.10865106  0.01282831  0.39193230    -0.05700
C1862       C  0.13270258  0.03767632  0.41910035    -0.33100
C1863       C  0.13447370  0.07083681  0.42608864     0.36100
C1864       C  0.11074367  0.07874442  0.40713127    -0.06100
C1865       C  0.08571822  0.05340990  0.38121079    -0.33000
C1866       C  0.08535813  0.02118188  0.37259247     0.36000
H1867       H  0.14976888  0.03110533  0.43553936     0.16400
O1868       O  0.15849380  0.09465593  0.45230920    -0.60500
H1869       H  0.06678930  0.05904630  0.36705157     0.16400
O1870       O  0.06065406  0.99712846  0.34703328    -0.60600
H1871       H  0.07402167  0.00251900  0.32301575     0.43400
H1872       H  0.14559938  0.08678667  0.47662990     0.43300
C1873       C  0.21082374  0.02311706  0.50717809    -0.05700
C1874       C  0.21517227  0.03213847  0.46904060    -0.33100
C1875       C  0.20369215  0.00482225  0.44132634     0.36100
C1876       C  0.18534555  0.96768726  0.45186385    -0.06100
C1877       C  0.18679144  0.95954836  0.48975017    -0.33000
C1878       C  0.19972503  0.98706438  0.51735487     0.36000
H1879       H  0.22433190  0.05988546  0.46070541     0.16400
O1880       O  0.20751898  0.01450696  0.40420379    -0.60500
H1881       H  0.17395631  0.93140192  0.49857643     0.16400
O1882       O  0.19698934  0.97772788  0.55450860    -0.60600
H1883       H  0.17062279  0.96371429  0.55997634     0.43400
H1884       H  0.18929924  0.02151906  0.39916836     0.43300
C1885       C  0.02799041  0.80333601  0.47844528    -0.05700
C1886       C  0.03707628  0.81213114  0.51638590    -0.33100
C1887       C  0.01002679  0.80029219  0.54372807     0.36100
C1888       C  0.97303540  0.78005314  0.53293180    -0.06100
C1889       C  0.96457979  0.76600779  0.49611297    -0.33000
C1890       C  0.99195039  0.77692389  0.46906917     0.36000
H1891       H  0.06470789  0.83228313  0.52415364     0.16400
O1892       O  0.02006275  0.81381025  0.57952066    -0.60500
H1893       H  0.93651138  0.74977213  0.48722510     0.16400
O1894       O  0.98228850  0.76674751  0.43236251    -0.60600
H1895       H  0.98377449  0.74448246  0.42891630     0.43400
H1896       H  0.02232701  0.79493814  0.59320674     0.43300
C1897       C  0.30066505  0.78324257  0.38802964    -0.05700
C1898       C  0.32498971  0.82111018  0.39053513    -0.33100
C1899       C  0.35573873  0.83611024  0.41349750     0.36100
C1900       C  0.36335336  0.81358546  0.43557586    -0.06100
C1901       C  0.33999134  0.77543952  0.43243832    -0.33000
C1902       C  0.30897906  0.76021457  0.40868188     0.36000
H1903       H  0.32053973  0.83977050  0.37417481     0.16400
O1904       O  0.37863194  0.87325500  0.41381666    -0.60500
H1905       H  0.34501803  0.75747646  0.44933634     0.16400
O1906       O  0.28741628  0.72304870  0.40574227    -0.60600
H1907       H  0.26754611  0.71625253  0.42394538     0.43400
H1908       H  0.36608577  0.88309313  0.42890291     0.43300
C1909       C  0.23201405  0.63836556  0.27504497    -0.05700
C1910       C  0.20643961  0.61071123  0.29848060    -0.33100
C1911       C  0.19535362  0.57393461  0.29220449     0.36100
C1912       C  0.20948465  0.56400819  0.26168292    -0.06100
C1913       C  0.23505027  0.59165495  0.23833613    -0.33000
C1914       C  0.24652836  0.62835136  0.24490712     0.36000
H1915       H  0.19431610  0.61746185  0.32142985     0.16400
O1916       O  0.16975329  0.54787222  0.31526043    -0.60500
H1917       H  0.24682973  0.58497480  0.21499233     0.16400
O1918       O  0.27069615  0.65392796  0.22046827    -0.60600
H1919       H  0.29493609  0.65957136  0.22934903     0.43400
H1920       H  0.18196669  0.55165684  0.33986759     0.43300
C1921       C  0.13695950  0.83678928  0.32839485    -0.05700
C1922       C  0.16421710  0.85274400  0.30111009    -0.33100
C1923       C  0.18565624  0.83764399  0.29192448     0.36100
C1924       C  0.18091351  0.80650965  0.31100456    -0.06100
C1925       C  0.15288120  0.79009131  0.33757457    -0.33000
C1926       C  0.13109202  0.80487879  0.34623620     0.36000
H1927       H  0.16898988  0.87714684  0.28685947     0.16400
O1928       O  0.21160917  0.85412420  0.26476524    -0.60500
H1929       H  0.14830194  0.76611629  0.35255314     0.16400
O1930       O  0.10510555  0.78873518  0.37341976    -0.60600
H1931       H  0.11783865  0.79984769  0.39742417     0.43400
H1932       H  0.19956991  0.84127505  0.24106824     0.43300
C1933       C  0.14636009  0.66790636  0.21448484    -0.05700
C1934       C  0.13585142  0.67822924  0.18183280    -0.33100
C1935       C  0.12216123  0.65453295  0.15074056     0.36100
C1936       C  0.12005752  0.62030523  0.15167621    -0.06100
C1937       C  0.12532339  0.60812446  0.18632668    -0.33000
C1938       C  0.13836870  0.63161598  0.21752207     0.36000
H1939       H  0.14213533  0.70611152  0.17883827     0.16400
O1940       O  0.11545037  0.66712475  0.11824223    -0.60500
H1941       H  0.12342095  0.58188316  0.18822661     0.16400
O1942       O  0.14901136  0.62079255  0.24870782    -0.60600
H1943       H  0.12977387  0.61473769  0.26751065     0.43400
H1944       H  0.08880171  0.65644586  0.11762243     0.43300
C1945       C  0.29927906  0.83259688  0.17419298    -0.05700
C1946       C  0.33265258  0.86539853  0.17930728    -0.33100
C1947       C  0.35853724  0.87917044  0.15060727     0.36100
C1948       C  0.35080919  0.86069159  0.11595479    -0.06100
C1949       C  0.31504057  0.83230909  0.10869689    -0.33000
C1950       C  0.28937361  0.81807056  0.13755902     0.36000
H1951       H  0.34049969  0.87821293  0.20675869     0.16400
O1952       O  0.39226063  0.90892679  0.15757577    -0.60500
H1953       H  0.30817326  0.81794143  0.08200763     0.16400
O1954       O  0.25634707  0.78742688  0.13052921    -0.60600
H1955       H  0.24007743  0.79659526  0.12373829     0.43400
H1956       H  0.40483205  0.89995538  0.17377124     0.43300
C1957       C  0.87666201  0.01439313  0.21117022    -0.05700
C1958       C  0.85845302  0.97617330  0.20584625    -0.33100
C1959       C  0.84589231  0.95206634  0.23622361     0.36100
C1960       C  0.85162239  0.96583658  0.27307028    -0.06100
C1961       C  0.87165320  0.00409215  0.27848775    -0.33000
C1962       C  0.88390048  0.02819715  0.24805858     0.36000
H1963       H  0.85256273  0.96472098  0.17779211     0.16400
O1964       O  0.82650910  0.91521960  0.22938997    -0.60500
H1965       H  0.87677405  0.01552994  0.30660884     0.16400
O1966       O  0.90112226  0.06501724  0.25481695    -0.60600
H1967       H  0.88146148  0.07067852  0.25645919     0.43400
H1968       H  0.80095832  0.90898042  0.22657990     0.43300
C1969       C  0.91026199  0.01412335  0.39863008    -0.05700
C1970       C  0.93217502  0.01647116  0.36820977    -0.33100
C1971       C  0.96547755  0.04845553  0.36197385     0.36100
C1972       C  0.97716901  0.07813930  0.38682279    -0.06100
C1973       C  0.95410238  0.07608708  0.41606020    -0.33000
C1974       C  0.92074538  0.04446526  0.42186123     0.36000
H1975       H  0.92368754  0.99319950  0.34971072     0.16400
O1976       O  0.98687834  0.04983205  0.33270844    -0.60500
H1977       H  0.96248904  0.09873217  0.43540508     0.16400
O1978       O  0.89989473  0.04250587  0.45194323    -0.60600
H1979       H  0.88714367  0.05522215  0.44391690     0.43400
H1980       H  0.00017670  0.03810882  0.34213406     0.43300
C1981       C  0.91159117  0.88160590  0.38042381    -0.05700
C1982       C  0.90905855  0.85054661  0.39674675    -0.33100
C1983       C  0.94016060  0.84916248  0.40478071     0.36100
C1984       C  0.97449102  0.87947510  0.39711479    -0.06100
C1985       C  0.97702315  0.91024914  0.37992466    -0.33000
C1986       C  0.94577652  0.91130617  0.37120795     0.36000
H1987       H  0.88285891  0.82779636  0.40462177     0.16400
O1988       O  0.93675836  0.81866833  0.42139369    -0.60500
H1989       H  0.00332120  0.93355772  0.37334594     0.16400
O1990       O  0.94905187  0.94244500  0.35649747    -0.60600
H1991       H  0.94920231  0.93937035  0.32891980     0.43400
H1992       H  0.93681604  0.82302005  0.44876654     0.43300
C1993       C  0.78303275  0.95183002  0.48572838    -0.05700
C1994       C  0.78948967  0.98634876  0.47558288    -0.33100
C1995       C  0.80343421  0.01491564  0.50189788     0.36100
C1996       C  0.80967969  0.00855529  0.53916376    -0.06100
C1997       C  0.79620258  0.97233375  0.55054169    -0.33000
C1998       C  0.78423881  0.94426931  0.52382661     0.36000
H1999       H  0.78916819  0.99268579  0.44623070     0.16400
O2000       O  0.81586951  0.04972723  0.48968000    -0.60500
H2001       H  0.80037448  0.96653938  0.57905439     0.16400
O2002       O  0.77797337  0.91069304  0.53450223    -0.60600
H2003       H  0.80231602  0.91368900  0.53774089     0.43400
H2004       H  0.79471252  0.05308422  0.49134637     0.43300
C2005       C  0.80772045  0.76681552  0.50002966    -0.05700
C2006       C  0.78121046  0.77569564  0.50861956    -0.33100
C2007       C  0.77007226  0.79159978  0.48141500     0.36100
C2008       C  0.78497718  0.79786960  0.44500781    -0.06100
C2009       C  0.80485961  0.78134669  0.43471884    -0.33000
C2010       C  0.81684031  0.76647019  0.46214401     0.36000
H2011       H  0.77371146  0.77601505  0.53759511     0.16400
O2012       O  0.74908665  0.80577561  0.49222168    -0.60500
H2013       H  0.81600705  0.78503446  0.40674394     0.16400
O2014       O  0.84257428  0.75783499  0.45284358    -0.60600
H2015       H  0.82920193  0.73419760  0.43924420     0.43400
H2016       H  0.72479788  0.78910585  0.48123040     0.43300
C2017       C  0.47915058  0.68534018  0.37885286    -0.05700
C2018       C  0.45791881  0.64710841  0.37372090    -0.33100
C2019       C  0.44591013  0.62303631  0.40418108     0.36100
C2020       C  0.45530159  0.63682669  0.44095615    -0.06100
C2021       C  0.47483609  0.67513491  0.44614625    -0.33000
C2022       C  0.48655402  0.69921073  0.41568543     0.36000
H2023       H  0.45153224  0.63557734  0.34571137     0.16400
O2024       O  0.42738951  0.58618316  0.39740423    -0.60500
H2025       H  0.48220381  0.68667290  0.47409574     0.16400
O2026       O  0.50754892  0.73599432  0.42231395    -0.60600
H2027       H  0.49010063  0.74427006  0.42688948     0.43400
H2028       H  0.40190578  0.57951974  0.39294356     0.43300
C2029       C  0.70301707  0.84487527  0.33269348    -0.05700
C2030       C  0.67829679  0.85408505  0.34695328    -0.33100
C2031       C  0.64120341  0.83273216  0.33876466     0.36100
C2032       C  0.62778782  0.80111769  0.31584700    -0.06100
C2033       C  0.65253385  0.79189929  0.30152284    -0.33000
C2034       C  0.68977422  0.81344266  0.30966782     0.36000
H2035       H  0.68763035  0.87771069  0.36512374     0.16400
O2036       O  0.61816844  0.84253018  0.35437598    -0.60500
H2037       H  0.64314372  0.76835553  0.28323838     0.16400
O2038       O  0.71315714  0.80434186  0.29364876    -0.60600
H2039       H  0.71116455  0.78416096  0.30907010     0.43400
H2040       H  0.62036409  0.86253906  0.33847562     0.43300
C2041       C  0.36609780  0.78976903  0.27621882    -0.05700
C2042       C  0.38868812  0.80096598  0.24488399    -0.33100
C2043       C  0.41860030  0.79653617  0.24349370     0.36100
C2044       C  0.42648963  0.78066943  0.27406759    -0.06100
C2045       C  0.40508591  0.77157837  0.30642154    -0.33000
C2046       C  0.37498142  0.77604884  0.30761173     0.36000
H2047       H  0.38216749  0.81173337  0.22058922     0.16400
O2048       O  0.43946113  0.80725081  0.21171643    -0.60500
H2049       H  0.41065896  0.75948631  0.33019560     0.16400
O2050       O  0.35275175  0.76406805  0.33823010    -0.60600
H2051       H  0.36664913  0.78219611  0.35819535     0.43400
H2052       H  0.42611034  0.78721497  0.19326181     0.43300
C2053       C  0.34231655  0.57747274  0.26062928    -0.05700
C2054       C  0.34644801  0.60525535  0.23644093    -0.33100
C2055       C  0.38054845  0.63586889  0.22954765     0.36100
C2056       C  0.41191387  0.63915553  0.24631906    -0.06100
C2057       C  0.40796273  0.61149803  0.27043796    -0.33000
C2058       C  0.37361007  0.58108124  0.27803783     0.36000
H2059       H  0.32311674  0.60325589  0.22233463     0.16400
O2060       O  0.38292915  0.66189491  0.20537727    -0.60500
H2061       H  0.43155120  0.61375151  0.28411320     0.16400
O2062       O  0.37085017  0.55559683  0.30323465    -0.60600
H2063       H  0.38591611  0.54606348  0.29306578     0.43400
H2064       H  0.37512678  0.67644525  0.22014364     0.43300
C2065       C  0.54659042  0.85335644  0.20678934    -0.05700
C2066       C  0.55973099  0.85813937  0.16989049    -0.33100
C2067       C  0.54622592  0.87115510  0.14200945     0.36100
C2068       C  0.51889348  0.87891086  0.15104157    -0.06100
C2069       C  0.51151300  0.88116424  0.18895760    -0.33000
C2070       C  0.52598903  0.86938951  0.21700912     0.36000
H2071       H  0.57651221  0.84711872  0.16153506     0.16400
O2072       O  0.55567503  0.87074204  0.10528830    -0.60500
H2073       H  0.49096868  0.88763838  0.19647008     0.16400
O2074       O  0.51433279  0.86761850  0.25316429    -0.60600
H2075       H  0.53425329  0.88934486  0.26595919     0.43400
H2076       H  0.54223780  0.84473855  0.09744038     0.43300
C2077       C  0.51472590  0.63723388  0.10838741    -0.05700
C2078       C  0.52516546  0.67276395  0.09715842    -0.33100
C2079       C  0.53675469  0.70092411  0.12383781     0.36100
C2080       C  0.54034594  0.69421874  0.16176039    -0.06100
C2081       C  0.53650778  0.66058003  0.17142277    -0.33000
C2082       C  0.52312739  0.63192386  0.14514968     0.36000
H2083       H  0.51861367  0.67737727  0.06912135     0.16400
O2084       O  0.54083717  0.73370468  0.11339092    -0.60500
H2085       H  0.53873242  0.65477598  0.20053711     0.16400
O2086       O  0.51299785  0.59757097  0.15717430    -0.60600
H2087       H  0.53284879  0.59363291  0.14915806     0.43400
H2088       H  0.51588717  0.72944264  0.11169981     0.43300
loop_ 
_geom_bond_atom_site_label_1 
_geom_bond_atom_site_label_2 
_geom_bond_distance 
_geom_bond_site_symmetry_2 
_ccdc_geom_bond_type 
O1          Cr19   1.970       .  S
O1            C9   1.268       .  A
O2          Cr19   1.987       .  S
O2            C3   1.253       .  A
C3            O4   1.251       .  A
C3         C2080   1.477       .  S
O4          Cr20   1.984       .  S
O5          Cr20   2.027       .  S
O5            C6   1.274       .  A
C6            O7   1.257       .  A
C6         C2032   1.492       .  S
O7          Cr21   1.956       .  S
O8          Cr21   2.045       .  S
O8            C9   1.280       .  A
C9         C2065   1.487       .  S
O10         Cr19   1.981       .  S
O10          C18   1.252       .  A
O11         Cr19   1.957       .  S
O11          C12   1.264       .  A
C12          O13   1.281       .  A
C12        C2056   1.487       .  S
O13         Cr20   2.038       .  S
O14         Cr20   1.946       .  S
O14          C15   1.250       .  A
C15          O16   1.270       .  A
C15        C2017   1.495       .  S
O16         Cr21   2.035       .  S
O17         Cr21   1.990       .  S
O17          C18   1.257       .  A
C18        C2044   1.476       .  S
Cr19         O22   1.773       .  S
Cr20         O22   1.777       .  S
Cr21         O22   1.781       .  S
O23         Cr41   1.985       .  S
O23          C31   1.255       .  A
O24         Cr41   1.966       .  S
O24          C25   1.268       .  A
C25          O26   1.284       .  A
C25        C2008   1.486       .  S
O26         Cr42   2.050       .  S
O27         Cr42   1.972       .  S
O27          C28   1.260       .  A
C28          O29   1.269       .  A
C28        C2029   1.488       .  S
O29         Cr43   2.007       .  S
O30         Cr43   1.980       .  S
O30          C31   1.252       .  A
C31        C1993   1.467       .  S
O32         Cr41   1.966       .  S
O32          C40   1.264       .  A
O33         Cr41   1.981       .  S
O33          C34   1.250       .  A
C34          O35   1.257       .  A
C34        C1981   1.465       .  S
O35         Cr42   2.004       .  S
O36         Cr42   2.033       .  S
O36          C37   1.271       .  A
C37          O38   1.251       .  A
C37        C1960   1.492       .  S
O38         Cr43   1.947       .  S
O39         Cr43   2.018       .  S
O39          C40   1.273       .  A
C40        C1969   1.460   1_565  S
Cr41         O44   1.769       .  S
Cr42         O44   1.773       .  S
Cr43         O44   1.775       .  S
O45         Cr63   1.977       .  S
O45          C53   1.263       .  A
O46         Cr63   1.988       .  S
O46          C47   1.259       .  A
C47          O48   1.260       .  A
C47        C1945   1.490       .  S
O48         Cr64   1.997       .  S
O49         Cr64   1.978       .  S
O49          C50   1.267       .  A
C50          O51   1.279       .  A
C50        C1924   1.497       .  S
O51         Cr65   2.038       .  S
O52         Cr65   2.009       .  S
O52          C53   1.271       .  A
C53        C1933   1.474       .  S
O54         Cr63   1.983       .  S
O54          C62   1.261       .  A
O55         Cr63   1.997       .  S
O55          C56   1.267       .  A
C56          O57   1.262       .  A
C56        C2041   1.464       .  S
O57         Cr64   1.985       .  S
O58         Cr64   1.978       .  S
O58          C59   1.253       .  A
C59          O60   1.262       .  A
C59        C1897   1.503       .  S
O60         Cr65   2.040       .  S
O61         Cr65   1.993       .  S
O61          C62   1.261       .  A
C62        C1909   1.489       .  S
Cr63         O66   1.764       .  S
Cr64         O66   1.777       .  S
Cr65         O66   1.779       .  S
O67         Cr85   1.981       .  S
O67          C75   1.255       .  A
O68         Cr85   1.975       .  S
O68          C69   1.270       .  A
C69          O70   1.279       .  A
C69        C1876   1.492       .  S
O70         Cr86   2.038       .  S
O71         Cr86   1.983       .  S
O71          C72   1.264       .  A
C72          O73   1.270       .  A
C72        C1921   1.487       .  S
O73         Cr87   2.010       .  S
O74         Cr87   1.989       .  S
O74          C75   1.256       .  A
C75        C1885   1.475       .  S
O76         Cr85   1.971       .  S
O76          C84   1.264       .  A
O77         Cr85   1.977       .  S
O77          C78   1.249       .  A
C78          O79   1.263       .  A
C78        C1861   1.475   1_565  S
O79         Cr86   2.015       .  S
O80         Cr86   2.027       .  S
O80          C81   1.267       .  A
C81          O82   1.251       .  A
C81        C1849   1.481       .  S
O82         Cr87   1.961       .  S
O83         Cr87   2.008       .  S
O83          C84   1.270       .  A
C84        C1984   1.469   1_455  S
Cr85         O88   1.771       .  S
Cr86         O88   1.780       .  S
Cr87         O88   1.783       .  S
O89        Cr107   1.981       .  S
O89          C97   1.265       .  A
O90        Cr107   1.987       .  S
O90          C91   1.257       .  A
C91          O92   1.261       .  A
C91        C1837   1.493       .  S
O92        Cr108   2.004       .  S
O93        Cr108   1.981       .  S
O93          C94   1.272       .  A
C94          O95   1.276       .  A
C94        C1813   1.485       .  S
O95        Cr109   2.025       .  S
O96        Cr109   1.988       .  S
O96          C97   1.264       .  A
C97        C1828   1.463       .  S
O98        Cr107   1.970       .  S
O98         C106   1.257       .  A
O99        Cr107   2.003       .  S
O99         C100   1.269       .  A
C100        O101   1.265       .  A
C100       C1912   1.487       .  S
O101       Cr108   1.988       .  S
O102       Cr108   1.978       .  S
O102        C103   1.254       .  A
C103        O104   1.263       .  A
C103       C1804   1.494       .  S
O104       Cr109   2.025       .  S
O105       Cr109   2.009       .  S
O105        C106   1.263       .  A
C106       C2053   1.492       .  S
Cr107       O110   1.764       .  S
Cr108       O110   1.776       .  S
Cr109       O110   1.779       .  S
O111       Cr129   1.988       .  S
O111        C119   1.259       .  A
O112       Cr129   1.977       .  S
O112        C113   1.267       .  A
C113        O114   1.275       .  A
C113       C1780   1.485       .  S
O114       Cr130   2.027       .  S
O115       Cr130   1.949       .  S
O115        C116   1.258       .  A
C116        O117   1.275       .  A
C116       C1816   1.493       .  S
O117       Cr131   2.039       .  S
O118       Cr131   1.982       .  S
O118        C119   1.257       .  A
C119       C1792   1.471       .  S
O120       Cr129   1.966       .  S
O120        C128   1.260       .  A
O121       Cr129   1.980       .  S
O121        C122   1.257       .  A
C122        O123   1.262       .  A
C122       C1972   1.472   1_455  S
O123       Cr130   1.997       .  S
O124       Cr130   2.028       .  S
O124        C125   1.267       .  A
C125        O126   1.249       .  A
C125       C1765   1.472       .  S
O126       Cr131   1.956       .  S
O127       Cr131   2.022       .  S
O127        C128   1.271       .  A
C128       C1864   1.468       .  S
Cr129       O132   1.765       .  S
Cr130       O132   1.772       .  S
Cr131       O132   1.776       .  S
O133       Cr151   1.988       .  S
O133        C141   1.254       .  A
O134       Cr151   1.974       .  S
O134        C135   1.267       .  A
C135        O136   1.276       .  A
C135       C1753   1.482       .  S
O136       Cr152   2.036       .  S
O137       Cr152   1.957       .  S
O137        C138   1.260       .  A
C138        O139   1.276       .  A
C138       C1729   1.494       .  S
O139       Cr153   2.040       .  S
O140       Cr153   1.990       .  S
O140        C141   1.254       .  A
C141       C1744   1.483       .  S
O142       Cr151   1.954       .  S
O142        C150   1.261       .  A
O143       Cr151   1.976       .  S
O143        C144   1.253       .  A
C144        O145   1.262       .  A
C144       C1717   1.482       .  S
O145       Cr152   2.001       .  S
O146       Cr152   2.028       .  S
O146        C147   1.267       .  A
C147        O148   1.250       .  A
C147       C1693   1.482       .  S
O148       Cr153   1.962       .  S
O149       Cr153   2.032       .  S
O149        C150   1.279       .  A
C150       C1708   1.486       .  S
Cr151       O154   1.773       .  S
Cr152       O154   1.783       .  S
Cr153       O154   1.780       .  S
O155       Cr173   1.978       .  S
O155        C163   1.264       .  A
O156       Cr173   1.982       .  S
O156        C157   1.255       .  A
C157        O158   1.262       .  A
C157       C1681   1.497       .  S
O158       Cr174   2.016       .  S
O159       Cr174   1.984       .  S
O159        C160   1.273       .  A
C160        O161   1.278       .  A
C160       C1732   1.500       .  S
O161       Cr175   2.036       .  S
O162       Cr175   2.000       .  S
O162        C163   1.268       .  A
C163       C1669   1.470       .  S
O164       Cr173   1.976       .  S
O164        C172   1.258       .  A
O165       Cr173   2.001       .  S
O165        C166   1.269       .  A
C166        O167   1.263       .  A
C166       C1660   1.479       .  S
O167       Cr174   1.982       .  S
O168       Cr174   1.985       .  S
O168        C169   1.255       .  A
C169        O170   1.263       .  A
C169       C1900   1.497       .  S
O170       Cr175   2.034       .  S
O171       Cr175   2.000       .  S
O171        C172   1.262       .  A
C172       C1648   1.490       .  S
Cr173       O176   1.763       .  S
Cr174       O176   1.779       .  S
Cr175       O176   1.776       .  S
O177       Cr195   1.969       .  S
O177        C185   1.267       .  A
O178       Cr195   1.986       .  S
O178        C179   1.253       .  A
C179        O180   1.253       .  A
C179       C1621   1.482       .  S
O180       Cr196   1.988       .  S
O181       Cr196   2.032       .  S
O181        C182   1.276       .  A
C182        O183   1.263       .  A
C182       C1597   1.500       .  S
O183       Cr197   1.974       .  S
O184       Cr197   2.041       .  S
O184        C185   1.278       .  A
C185       C1633   1.486       .  S
O186       Cr195   1.975       .  S
O186        C194   1.253       .  A
O187       Cr195   1.948       .  S
O187        C188   1.261       .  A
C188        O189   1.279       .  A
C188       C1645   1.489       .  S
O189       Cr196   2.037       .  S
O190       Cr196   1.947       .  S
O190        C191   1.249       .  A
C191        O192   1.269       .  A
C191       C2020   1.497       .  S
O192       Cr197   2.035       .  S
O193       Cr197   2.003       .  S
O193        C194   1.261       .  A
C194       C1609   1.471       .  S
Cr195       O198   1.775       .  S
Cr196       O198   1.781       .  S
Cr197       O198   1.788       .  S
O199       Cr217   1.989       .  S
O199        C207   1.260       .  A
O200       Cr217   1.980       .  S
O200        C201   1.264       .  A
C201        O202   1.269       .  A
C201       C1573   1.470       .  S
O202       Cr218   1.999       .  S
O203       Cr218   2.027       .  S
O203        C204   1.276       .  A
C204        O205   1.272       .  A
C204       C1600   1.502       .  S
O205       Cr219   1.994       .  S
O206       Cr219   2.004       .  S
O206        C207   1.262       .  A
C207       C1585   1.496       .  S
O208       Cr217   1.996       .  S
O208        C216   1.266       .  A
O209       Cr217   1.982       .  S
O209        C210   1.259       .  A
C210        O211   1.260       .  A
C210       C1561   1.487       .  S
O211       Cr218   1.988       .  S
O212       Cr218   2.018       .  S
O212        C213   1.261       .  A
C213        O214   1.255       .  A
C213       C1549   1.494       .  S
O214       Cr219   1.982       .  S
O215       Cr219   1.988       .  S
O215        C216   1.263       .  A
C216       C1720   1.472       .  S
Cr217       O220   1.770       .  S
Cr218       O220   1.779       .  S
Cr219       O220   1.779       .  S
O221       Cr239   1.966       .  S
O221        C229   1.266       .  A
O222       Cr239   1.975       .  S
O222        C223   1.251       .  A
C223        O224   1.254       .  A
C223       C1528   1.483       .  S
O224       Cr240   1.999       .  S
O225       Cr240   2.020       .  S
O225        C226   1.272       .  A
C226        O227   1.261       .  A
C226       C1516   1.493       .  S
O227       Cr241   1.966       .  S
O228       Cr241   2.040       .  S
O228        C229   1.278       .  A
C229       C1537   1.480       .  S
O230       Cr239   1.977       .  S
O230        C238   1.252       .  A
O231       Cr239   1.949       .  S
O231        C232   1.264       .  A
C232        O233   1.278       .  A
C232       C1612   1.470       .  S
O233       Cr240   2.027       .  S
O234       Cr240   1.952       .  S
O234        C235   1.250       .  A
C235        O236   1.265       .  A
C235       C1801   1.475       .  S
O236       Cr241   2.018       .  S
O237       Cr241   1.994       .  S
O237        C238   1.256       .  A
C238       C1657   1.467       .  S
Cr239       O242   1.772       .  S
Cr240       O242   1.787       .  S
Cr241       O242   1.788       .  S
O243       Cr261   1.984       .  S
O243        C251   1.256       .  A
O244       Cr261   1.972       .  S
O244        C245   1.262       .  A
C245        O246   1.269       .  A
C245       C1504   1.472       .  S
O246       Cr262   2.005       .  S
O247       Cr262   2.021       .  S
O247        C248   1.275       .  A
C248        O249   1.274       .  A
C248       C1513   1.496       .  S
O249       Cr263   1.991       .  S
O250       Cr263   2.012       .  S
O250        C251   1.262       .  A
C251       C1489   1.494       .  S
O252       Cr261   1.996       .  S
O252        C260   1.267       .  A
O253       Cr261   1.979       .  S
O253        C254   1.259       .  A
C254        O255   1.261       .  A
C254       C1705   1.489       .  S
O255       Cr262   1.991       .  S
O256       Cr262   2.026       .  S
O256        C257   1.264       .  A
C257        O258   1.256       .  A
C257       C1477   1.499       .  S
O258       Cr263   1.987       .  S
O259       Cr263   1.987       .  S
O259        C260   1.264       .  A
C260       C1564   1.484       .  S
Cr261       O264   1.770       .  S
Cr262       O264   1.775       .  S
Cr263       O264   1.783       .  S
O265       Cr283   1.983       .  S
O265        C273   1.256       .  A
O266       Cr283   1.961       .  S
O266        C267   1.262       .  A
C267        O268   1.277       .  A
C267       C1465   1.481       .  S
O268       Cr284   2.042       .  S
O269       Cr284   1.970       .  S
O269        C270   1.262       .  A
C270        O271   1.273       .  A
C270       C1441   1.495       .  S
O271       Cr285   2.022       .  S
O272       Cr285   1.984       .  S
O272        C273   1.254       .  A
C273       C1453   1.471       .  S
O274       Cr283   1.946       .  S
O274        C282   1.260       .  A
O275       Cr283   1.990       .  S
O275        C276   1.258       .  A
C276        O277   1.264       .  A
C276       C1429   1.487       .  S
O277       Cr284   2.006       .  S
O278       Cr284   2.038       .  S
O278        C279   1.270       .  A
C279        O280   1.247       .  A
C279       C1552   1.475       .  S
O280       Cr285   1.946       .  S
O281       Cr285   2.019       .  S
O281        C282   1.272       .  A
C282       C1417   1.473       .  S
Cr283       O286   1.763       .  S
Cr284       O286   1.780       .  S
Cr285       O286   1.776       .  S
O287       Cr305   1.971       .  S
O287        C295   1.265       .  A
O288       Cr305   1.995       .  S
O288        C289   1.258       .  A
C289        O290   1.255       .  A
C289       C1873   1.477       .  S
O290       Cr306   1.982       .  S
O291       Cr306   2.027       .  S
O291        C292   1.274       .  A
C292        O293   1.260       .  A
C292       C1444   1.495       .  S
O293       Cr307   1.964       .  S
O294       Cr307   2.037       .  S
O294        C295   1.277       .  A
C295       C1789   1.487       .  S
O296       Cr305   1.993       .  S
O296        C304   1.257       .  A
O297       Cr305   1.963       .  S
O297        C298   1.262       .  A
C298        O299   1.271       .  A
C298       C1393   1.469   1_545  S
O299       Cr306   2.012       .  S
O300       Cr306   1.951       .  S
O300        C301   1.247       .  A
C301        O302   1.269       .  A
C301       C1381   1.483       .  S
O302       Cr307   2.040       .  S
O303       Cr307   1.993       .  S
O303        C304   1.260       .  A
C304       C1405   1.462       .  S
Cr305       O308   1.772       .  S
Cr306       O308   1.774       .  S
Cr307       O308   1.779       .  S
O309       Cr327   1.990       .  S
O309        C317   1.256       .  A
O310       Cr327   1.980       .  S
O310        C311   1.265       .  A
C311        O312   1.267       .  A
C311       C1369   1.475       .  S
O312       Cr328   1.998       .  S
O313       Cr328   2.031       .  S
O313        C314   1.279       .  A
C314        O315   1.272       .  A
C314       C1345   1.487       .  S
O315       Cr329   1.975       .  S
O316       Cr329   1.994       .  S
O316        C317   1.256       .  A
C317       C1357   1.492       .  S
O318       Cr327   2.007       .  S
O318        C326   1.273       .  A
O319       Cr327   1.967       .  S
O319        C320   1.257       .  A
C320        O321   1.264       .  A
C320       C1333   1.491       .  S
O321       Cr328   2.004       .  S
O322       Cr328   2.039       .  S
O322        C323   1.263       .  A
C323        O324   1.249       .  A
C323       C1696   1.497       .  S
O324       Cr329   1.973       .  S
O325       Cr329   1.992       .  S
O325        C326   1.268       .  A
C326       C1432   1.489       .  S
Cr327       O330   1.764       .  S
Cr328       O330   1.782       .  S
Cr329       O330   1.778       .  S
O331       Cr349   1.967       .  S
O331        C339   1.268       .  A
O332       Cr349   1.984       .  S
O332        C333   1.253       .  A
C333        O334   1.252       .  A
C333       C1777   1.472       .  S
O334       Cr350   1.984       .  S
O335       Cr350   2.007       .  S
O335        C336   1.269       .  A
C336        O337   1.259       .  A
C336       C1348   1.492       .  S
O337       Cr351   1.966       .  S
O338       Cr351   2.035       .  S
O338        C339   1.280       .  A
C339       C1996   1.481       .  S
O340       Cr349   1.975       .  S
O340        C348   1.251       .  A
O341       Cr349   1.959       .  S
O341        C342   1.264       .  A
C342        O343   1.275       .  A
C342       C1408   1.473   1_655  S
O343       Cr350   2.021       .  S
O344       Cr350   1.944       .  S
O344        C345   1.250       .  A
C345        O346   1.270       .  A
C345       C1309   1.495       .  S
O346       Cr351   2.031       .  S
O347       Cr351   2.000       .  S
O347        C348   1.258       .  A
C348       C1324   1.465   1_545  S
Cr349       O352   1.770       .  S
Cr350       O352   1.781       .  S
Cr351       O352   1.782       .  S
O353       Cr371   1.985       .  S
O353        C361   1.256       .  A
O354       Cr371   1.979       .  S
O354        C355   1.267       .  A
C355        O356   1.273       .  A
C355       C1297   1.488       .  S
O356       Cr372   2.024       .  S
O357       Cr372   1.958       .  S
O357        C358   1.258       .  A
C358        O359   1.276       .  A
C358       C1273   1.497       .  S
O359       Cr373   2.034       .  S
O360       Cr373   1.983       .  S
O360        C361   1.254       .  A
C361       C1288   1.473       .  S
O362       Cr371   1.957       .  S
O362        C370   1.261       .  A
O363       Cr371   1.977       .  S
O363        C364   1.257       .  A
C364        O365   1.262       .  A
C364       C1420   1.460       .  S
O365       Cr372   1.991       .  S
O366       Cr372   2.037       .  S
O366        C367   1.268       .  A
C367        O368   1.247       .  A
C367       C1480   1.481       .  S
O368       Cr373   1.953       .  S
O369       Cr373   2.026       .  S
O369        C370   1.274       .  A
C370       C1336   1.481       .  S
Cr371       O374   1.774       .  S
Cr372       O374   1.782       .  S
Cr373       O374   1.779       .  S
O375       Cr393   1.977       .  S
O375        C383   1.268       .  A
O376       Cr393   1.974       .  S
O376        C377   1.253       .  A
C377        O378   1.256       .  A
C377       C2005   1.476       .  S
O378       Cr394   1.992       .  S
O379       Cr394   2.028       .  S
O379        C380   1.275       .  A
C380        O381   1.260       .  A
C380       C1276   1.497       .  S
O381       Cr395   1.963       .  S
O382       Cr395   2.031       .  S
O382        C383   1.276       .  A
C383       C1888   1.491       .  S
O384       Cr393   1.976       .  S
O384        C392   1.253       .  A
O385       Cr393   1.951       .  S
O385        C386   1.261       .  A
C386        O387   1.274       .  A
C386       C1321   1.479       .  S
O387       Cr394   2.021       .  S
O388       Cr394   1.954       .  S
O388        C389   1.249       .  A
C389        O390   1.266       .  A
C389       C1261   1.486       .  S
O390       Cr395   2.027       .  S
O391       Cr395   2.004       .  S
O391        C392   1.262       .  A
C392       C1396   1.475   1_655  S
Cr393       O396   1.772       .  S
Cr394       O396   1.786       .  S
Cr395       O396   1.782       .  S
O397       Cr415   1.996       .  S
O397        C405   1.257       .  A
O398       Cr415   1.965       .  S
O398        C399   1.261       .  A
C399        O400   1.270       .  A
C399       C1624   1.478       .  S
O400       Cr416   2.011       .  S
O401       Cr416   2.024       .  S
O401        C402   1.278       .  A
C402        O403   1.275       .  A
C402       C1237   1.496       .  S
O403       Cr417   1.994       .  S
O404       Cr417   1.986       .  S
O404        C405   1.253       .  A
C405       C1672   1.492       .  S
O406       Cr415   1.997       .  S
O406        C414   1.268       .  A
O407       Cr415   1.987       .  S
O407        C408   1.263       .  A
C408        O409   1.257       .  A
C408       C1228   1.486       .  S
O409       Cr416   1.977       .  S
O410       Cr416   2.029       .  S
O410        C411   1.258       .  A
C411        O412   1.248       .  A
C411       C1213   1.498       .  S
O412       Cr417   1.976       .  S
O413       Cr417   1.995       .  S
O413        C414   1.270       .  A
C414       C1252   1.487       .  S
Cr415       O418   1.776       .  S
Cr416       O418   1.783       .  S
Cr417       O418   1.786       .  S
O419       Cr437   1.971       .  S
O419        C427   1.269       .  A
O420       Cr437   1.975       .  S
O420        C421   1.250       .  A
C421        O422   1.250       .  A
C421       C1204   1.474       .  S
O422       Cr438   1.987       .  S
O423       Cr438   2.030       .  S
O423        C424   1.276       .  A
C424        O425   1.262       .  A
C424       C1240   1.503       .  S
O425       Cr439   1.970       .  S
O426       Cr439   2.043       .  S
O426        C427   1.282       .  A
C427       C1189   1.489       .  S
O428       Cr437   1.975       .  S
O428        C436   1.248       .  A
O429       Cr437   1.957       .  S
O429        C430   1.265       .  A
C430        O431   1.284       .  A
C430       C1177   1.494       .  S
O431       Cr438   2.047       .  S
O432       Cr438   1.942       .  S
O432        C433   1.248       .  A
C433        O434   1.267       .  A
C433       C1264   1.495       .  S
O434       Cr439   2.027       .  S
O435       Cr439   2.002       .  S
O435        C436   1.258       .  A
C436       C1165   1.464   1_565  S
Cr437       O440   1.777       .  S
Cr438       O440   1.778       .  S
Cr439       O440   1.778       .  S
O441       Cr459   1.995       .  S
O441        C449   1.259       .  A
O442       Cr459   1.971       .  S
O442        C443   1.261       .  A
C443        O444   1.270       .  A
C443       C1525   1.477       .  S
O444       Cr460   2.010       .  S
O445       Cr460   2.018       .  S
O445        C446   1.275       .  A
C446        O447   1.274       .  A
C446       C1141   1.488       .  S
O447       Cr461   1.982       .  S
O448       Cr461   1.985       .  S
O448        C449   1.255       .  A
C449       C1636   1.491       .  S
O450       Cr459   1.995       .  S
O450        C458   1.267       .  A
O451       Cr459   1.980       .  S
O451        C452   1.260       .  A
C452        O453   1.256       .  A
C452       C1153   1.476       .  S
O453       Cr460   1.965       .  S
O454       Cr460   2.034       .  S
O454        C455   1.259       .  A
C455        O456   1.248       .  A
C455       C1132   1.489       .  S
O456       Cr461   1.975       .  S
O457       Cr461   2.003       .  S
O457        C458   1.272       .  A
C458       C1225   1.490       .  S
Cr459       O462   1.770       .  S
Cr460       O462   1.778       .  S
Cr461       O462   1.776       .  S
O463       Cr481   1.971       .  S
O463        C471   1.267       .  A
O464       Cr481   1.992       .  S
O464        C465   1.258       .  A
C465        O466   1.257       .  A
C465       C1117   1.479       .  S
O466       Cr482   1.984       .  S
O467       Cr482   2.031       .  S
O467        C468   1.274       .  A
C468        O469   1.256       .  A
C468       C1144   1.487       .  S
O469       Cr483   1.946       .  S
O470       Cr483   2.030       .  S
O470        C471   1.275       .  A
C471       C1105   1.479       .  S
O472       Cr481   1.978       .  S
O472        C480   1.256       .  A
O473       Cr481   1.954       .  S
O473        C474   1.259       .  A
C474        O475   1.271       .  A
C474       C1168   1.460   1_455  S
O475       Cr482   2.015       .  S
O476       Cr482   1.956       .  S
O476        C477   1.250       .  A
C477        O478   1.268       .  A
C477       C1312   1.488       .  S
O478       Cr483   2.028       .  S
O479       Cr483   1.990       .  S
O479        C480   1.260       .  A
C480       C1096   1.475       .  S
Cr481       O484   1.766       .  S
Cr482       O484   1.777       .  S
Cr483       O484   1.776       .  S
O485       Cr503   1.992       .  S
O485        C493   1.257       .  A
O486       Cr503   1.965       .  S
O486        C487   1.260       .  A
C487        O488   1.271       .  A
C487       C1684   1.475       .  S
O488       Cr504   2.014       .  S
O489       Cr504   2.032       .  S
O489        C490   1.280       .  A
C490        O491   1.271       .  A
C490       C1081   1.496       .  S
O491       Cr505   1.979       .  S
O492       Cr505   1.990       .  S
O492        C493   1.257       .  A
C493       C1540   1.491       .  S
O494       Cr503   1.993       .  S
O494        C502   1.267       .  A
O495       Cr503   1.984       .  S
O495        C496   1.262       .  A
C496        O497   1.258       .  A
C496       C1249   1.482       .  S
O497       Cr504   1.981       .  S
O498       Cr504   2.037       .  S
O498        C499   1.260       .  A
C499        O500   1.251       .  A
C499       C1069   1.497       .  S
O500       Cr505   1.981       .  S
O501       Cr505   1.984       .  S
O501        C502   1.267       .  A
C502       C1156   1.479       .  S
Cr503       O506   1.773       .  S
Cr504       O506   1.777       .  S
Cr505       O506   1.780       .  S
O507       Cr525   1.977       .  S
O507        C515   1.264       .  A
O508       Cr525   1.988       .  S
O508        C509   1.258       .  A
C509        O510   1.260       .  A
C509       C1045   1.493       .  S
O510       Cr526   1.999       .  S
O511       Cr526   1.976       .  S
O511        C512   1.268       .  A
C512        O513   1.278       .  A
C512       C1084   1.497       .  S
O513       Cr527   2.036       .  S
O514       Cr527   2.002       .  S
O514        C515   1.269       .  A
C515       C1057   1.472       .  S
O516       Cr525   1.983       .  S
O516        C524   1.261       .  A
O517       Cr525   1.999       .  S
O517        C518   1.267       .  A
C518        O519   1.260       .  A
C518       C1093   1.464   1_565  S
O519       Cr526   1.968       .  S
O520       Cr526   1.982       .  S
O520        C521   1.256       .  A
C521        O522   1.264       .  A
C521       C1384   1.496       .  S
O522       Cr527   2.028       .  S
O523       Cr527   2.008       .  S
O523        C524   1.263       .  A
C524       C1180   1.499   1_455  S
Cr525       O528   1.769       .  S
Cr526       O528   1.782       .  S
Cr527       O528   1.780       .  S
O529       Cr547   1.969       .  S
O529        C537   1.264       .  A
O530       Cr547   1.986       .  S
O530        C531   1.258       .  A
C531        O532   1.256       .  A
C531       C1300   1.472       .  S
O532       Cr548   1.983       .  S
O533       Cr548   2.031       .  S
O533        C534   1.274       .  A
C534        O535   1.260       .  A
C534       C1033   1.494       .  S
O535       Cr549   1.961       .  S
O536       Cr549   2.035       .  S
O536        C537   1.276       .  A
C537       C1456   1.485       .  S
O538       Cr547   1.981       .  S
O538        C546   1.257       .  A
O539       Cr547   1.957       .  S
O539        C540   1.259       .  A
C540        O541   1.272       .  A
C540       C1021   1.466       .  S
O541       Cr548   2.027       .  S
O542       Cr548   1.951       .  S
O542        C543   1.250   1_556  A
C543        O544   1.268       .  A
C543        C997   1.477       .  S
O544       Cr549   2.031   1_554  S
O545       Cr549   1.997       .  S
O545        C546   1.260       .  A
C546       C1009   1.472       .  S
Cr547       O550   1.764       .  S
Cr548       O550   1.778       .  S
Cr549       O550   1.780       .  S
O551       Cr569   1.985       .  S
O551        C559   1.252       .  A
O552       Cr569   1.968       .  S
O552        C553   1.262       .  A
C553        O554   1.268       .  A
C553       C2077   1.475       .  S
O554       Cr570   2.001       .  S
O555       Cr570   2.045       .  S
O555        C556   1.285       .  A
C556        O557   1.274       .  A
C556       C1036   1.494       .  S
O557       Cr571   1.973       .  S
O558       Cr571   1.991       .  S
O558        C559   1.253       .  A
C559       C1825   1.485       .  S
O560       Cr569   2.010       .  S
O560        C568   1.274       .  A
O561       Cr569   1.968       .  S
O561        C562   1.258       .  A
C562        O563   1.264       .  A
C562        C985   1.484       .  S
O563       Cr570   1.993       .  S
O564       Cr570   2.040   1_556  S
O564        C565   1.257       .  A
C565        O566   1.245       .  A
C565       C1129   1.497       .  S
O566       Cr571   1.970   1_556  S
O567       Cr571   1.984       .  S
O567        C568   1.270       .  A
C568        C973   1.486       .  S
Cr569       O572   1.764       .  S
Cr570       O572   1.776       .  S
Cr571       O572   1.781       .  S
O573       Cr591   1.982       .  S
O573        C581   1.264       .  A
O574       Cr591   1.979       .  S
O574        C575   1.255       .  A
C575        O576   1.261       .  A
C575       C1468   1.489       .  S
O576       Cr592   2.010       .  S
O577       Cr592   1.975       .  S
O577        C578   1.271       .  A
C578        O579   1.279       .  A
C578        C961   1.492       .  S
O579       Cr593   2.036       .  S
O580       Cr593   2.000       .  S
O580        C581   1.268       .  A
C581       C1360   1.473       .  S
O582       Cr591   1.975       .  S
O582        C590   1.258       .  A
O583       Cr591   2.002       .  S
O583        C584   1.270       .  A
C584        O585   1.264       .  A
C584       C1012   1.480       .  S
O585       Cr592   1.986       .  S
O586       Cr592   1.980   1_554  S
O586        C587   1.254       .  A
C587        O588   1.263       .  A
C587        C940   1.497       .  S
O588       Cr593   2.037   1_554  S
O589       Cr593   2.000       .  S
O589        C590   1.263       .  A
C590        C949   1.487       .  S
Cr591       O594   1.761       .  S
Cr592       O594   1.778       .  S
Cr593       O594   1.774       .  S
O595       Cr613   1.995       .  S
O595        C603   1.261       .  A
O596       Cr613   1.974       .  S
O596        C597   1.263       .  A
C597        O598   1.273       .  A
C597       C1948   1.483       .  S
O598       Cr614   2.034       .  S
O599       Cr614   1.945       .  S
O599        C600   1.259       .  A
C600        O601   1.277       .  A
C600        C964   1.490   1_554  S
O601       Cr615   2.044       .  S
O602       Cr615   1.979       .  S
O602        C603   1.256       .  A
C603       C2068   1.476       .  S
O604       Cr613   1.952       .  S
O604        C612   1.258       .  A
O605       Cr613   1.988       .  S
O605        C606   1.262       .  A
C606        O607   1.263       .  A
C606        C925   1.467       .  S
O607       Cr614   1.984       .  S
O608       Cr614   2.044   1_556  S
O608        C609   1.269       .  A
C609        O610   1.247   1_556  A
C609       C1216   1.484       .  S
O610       Cr615   1.958       .  S
O611       Cr615   2.021       .  S
O611        C612   1.272       .  A
C612        C988   1.483       .  S
Cr613       O616   1.766       .  S
Cr614       O616   1.776       .  S
Cr615       O616   1.772       .  S
O617       Cr635   1.988       .  S
O617        C625   1.259       .  A
O618       Cr635   1.974       .  S
O618        C619   1.263       .  A
C619        O620   1.270       .  A
C619       C1840   1.473       .  S
O620       Cr636   2.007       .  S
O621       Cr636   2.028   1_556  S
O621        C622   1.277   1_556  A
C622        O623   1.272       .  A
C622        C913   1.494       .  S
O623       Cr637   1.981       .  S
O624       Cr637   2.006       .  S
O624        C625   1.260       .  A
C625       C1936   1.494       .  S
O626       Cr635   1.991       .  S
O626        C634   1.267       .  A
O627       Cr635   1.981       .  S
O627        C628   1.260       .  A
C628        O629   1.260       .  A
C628        C976   1.480       .  S
O629       Cr636   1.981       .  S
O630       Cr636   2.037   1_556  S
O630        C631   1.261       .  A
C631        O632   1.254       .  A
C631       C1072   1.504       .  S
O632       Cr637   1.981   1_556  S
O633       Cr637   1.987       .  S
O633        C634   1.264       .  A
C634        C928   1.477       .  S
Cr635       O638   1.766       .  S
Cr636       O638   1.776       .  S
Cr637       O638   1.779       .  S
O639       Cr657   1.973       .  S
O639        C647   1.267       .  A
O640       Cr657   1.996       .  S
O640        C641   1.258       .  A
C641        O642   1.253       .  A
C641       C1372   1.478       .  S
O642       Cr658   1.981       .  S
O643       Cr658   2.027       .  S
O643        C644   1.274       .  A
C644        O645   1.260       .  A
C644        C916   1.485       .  S
O645       Cr659   1.961       .  S
O646       Cr659   2.034       .  S
O646        C647   1.277       .  A
C647       C1285   1.488       .  S
O648       Cr657   1.993       .  S
O648        C656   1.256       .  A
O649       Cr657   1.962       .  S
O649        C650   1.263       .  A
C650        O651   1.275       .  A
C650        C952   1.489       .  S
O651       Cr658   2.025       .  S
O652       Cr658   1.955       .  S
O652        C653   1.248   1_556  A
C653        O654   1.266       .  A
C653        C901   1.474       .  S
O654       Cr659   2.025   1_554  S
O655       Cr659   1.993       .  S
O655        C656   1.260       .  A
C656       C1024   1.469       .  S
Cr657       O660   1.774       .  S
Cr658       O660   1.774       .  S
Cr659       O660   1.777       .  S
O661       Cr679   1.992       .  S
O661        C669   1.258       .  A
O662       Cr679   1.976       .  S
O662        C663   1.265       .  A
C663        O664   1.268       .  A
C663       C1201   1.473       .  S
O664       Cr680   1.998       .  S
O665       Cr680   2.023       .  S
O665        C666   1.277       .  A
C666        O667   1.274       .  A
C666        C889   1.497       .  S
O667       Cr681   1.993       .  S
O668       Cr681   1.994       .  S
O668        C669   1.257       .  A
C669       C1060   1.495   1_554  S
O670       Cr679   1.997       .  S
O670        C678   1.268       .  A
O671       Cr679   1.977       .  S
O671        C672   1.258       .  A
C672        O673   1.260       .  A
C672        C880   1.491       .  S
O673       Cr680   1.996       .  S
O674       Cr680   2.031       .  S
O674        C675   1.263       .  A
C675        O676   1.252       .  A
C675       C1852   1.492       .  S
O676       Cr681   1.977       .  S
O677       Cr681   1.985       .  S
O677        C678   1.267       .  A
C678        C868   1.475   1_655  S
Cr679       O682   1.772       .  S
Cr680       O682   1.783       .  S
Cr681       O682   1.781       .  S
O683       Cr701   1.961       .  S
O683        C691   1.262       .  A
O684       Cr701   1.996       .  S
O684        C685   1.259       .  A
C685        O686   1.253       .  A
C685       C1576   1.493       .  S
O686       Cr702   1.977       .  S
O687       Cr702   1.993       .  S
O687        C688   1.274       .  A
C688        O689   1.275       .  A
C688        C892   1.498       .  S
O689       Cr703   2.020       .  S
O690       Cr703   2.008       .  S
O690        C691   1.271       .  A
C691       C1492   1.470       .  S
O692       Cr701   1.988       .  S
O692        C700   1.261       .  A
O693       Cr701   1.991       .  S
O693        C694   1.265       .  A
C694        O695   1.268       .  A
C694        C853   1.478       .  S
O695       Cr702   1.982       .  S
O696       Cr702   1.971       .  S
O696        C697   1.249       .  A
C697        O698   1.261       .  A
C697       C1000   1.490       .  S
O698       Cr703   2.027       .  S
O699       Cr703   1.979       .  S
O699        C700   1.257       .  A
C700        C844   1.484       .  S
Cr701       O704   1.779       .  S
Cr702       O704   1.782       .  S
Cr703       O704   1.783       .  S
O705       Cr723   1.982       .  S
O705        C713   1.252       .  A
O706       Cr723   1.969       .  S
O706        C707   1.266       .  A
C707        O708   1.281       .  A
C707       C1120   1.489       .  S
O708       Cr724   2.044       .  S
O709       Cr724   1.964       .  S
O709        C710   1.260       .  A
C710        O711   1.273       .  A
C710        C829   1.491       .  S
O711       Cr725   2.023       .  S
O712       Cr725   1.982       .  S
O712        C713   1.251       .  A
C713       C1192   1.474       .  S
O714       Cr723   1.955       .  S
O714        C722   1.264       .  A
O715       Cr723   1.983       .  S
O715        C716   1.253       .  A
C716        O717   1.260       .  A
C716        C817   1.483   1_655  S
O717       Cr724   1.998       .  S
O718       Cr724   2.034       .  S
O718        C719   1.269       .  A
C719        O720   1.249       .  A
C719       C1957   1.493       .  S
O720       Cr725   1.945       .  S
O721       Cr725   2.034       .  S
O721        C722   1.280       .  A
C722        C877   1.484   1_545  S
Cr723       O726   1.774       .  S
Cr724       O726   1.782       .  S
Cr725       O726   1.779       .  S
O727       Cr745   1.972       .  S
O727        C735   1.262       .  A
O728       Cr745   1.989       .  S
O728        C729   1.258       .  A
C729        O730   1.258       .  A
C729       C1501   1.493       .  S
O730       Cr746   1.993       .  S
O731       Cr746   1.992       .  S
O731        C732   1.274       .  A
C732        O733   1.275       .  A
C732        C832   1.496       .  S
O733       Cr747   2.018       .  S
O734       Cr747   2.002       .  S
O734        C735   1.268       .  A
C735       C1741   1.472       .  S
O736       Cr745   1.972       .  S
O736        C744   1.259       .  A
O737       Cr745   1.996       .  S
O737        C738   1.267       .  A
C738        O739   1.271       .  A
C738        C841   1.487       .  S
O739       Cr746   2.003       .  S
O740       Cr746   1.978       .  S
O740        C741   1.252       .  A
C741        O742   1.259       .  A
C741        C904   1.492       .  S
O742       Cr747   2.020       .  S
O743       Cr747   1.979       .  S
O743        C744   1.258       .  A
C744        C805   1.474       .  S
Cr745       O748   1.769       .  S
Cr746       O748   1.777       .  S
Cr747       O748   1.783       .  S
O749       Cr767   1.970       .  S
O749        C757   1.263       .  A
O750       Cr767   1.993       .  S
O750        C751   1.258       .  A
C751        O752   1.256       .  A
C751       C1756   1.491       .  S
O752       Cr768   1.989       .  S
O753       Cr768   1.977       .  S
O753        C754   1.272       .  A
C754        O755   1.276       .  A
C754        C793   1.486       .  S
O755       Cr769   2.018       .  S
O756       Cr769   2.009       .  S
O756        C757   1.271       .  A
C757       C1588   1.474       .  S
O758       Cr767   1.984       .  S
O758        C766   1.260       .  A
O759       Cr767   1.996       .  S
O759        C760   1.268       .  A
C760        O761   1.267       .  A
C760        C808   1.480       .  S
O761       Cr768   1.981       .  S
O762       Cr768   1.973       .  S
O762        C763   1.249       .  A
C763        O764   1.260       .  A
C763        C937   1.502       .  S
O764       Cr769   2.047       .  S
O765       Cr769   1.959       .  S
O765        C766   1.254       .  A
C766        C856   1.476       .  S
Cr767       O770   1.771       .  S
Cr768       O770   1.777       .  S
Cr769       O770   1.778       .  S
O771       Cr789   1.990       .  S
O771        C779   1.259       .  A
O772       Cr789   1.973       .  S
O772        C773   1.263       .  A
C773        O774   1.269       .  A
C773       C1048   1.470       .  S
O774       Cr790   2.003       .  S
O775       Cr790   2.005       .  S
O775        C776   1.271       .  A
C776        O777   1.270       .  A
C776        C796   1.486       .  S
O777       Cr791   1.987       .  S
O778       Cr791   1.983       .  S
O778        C779   1.257       .  A
C779       C1108   1.486       .  S
O780       Cr789   1.997       .  S
O780        C788   1.267       .  A
O781       Cr789   1.989       .  S
O781        C782   1.261       .  A
C782        O783   1.256       .  A
C782        C865   1.484   1_545  S
O783       Cr790   1.971       .  S
O784       Cr790   2.023       .  S
O784        C785   1.262       .  A
C785        O786   1.249       .  A
C785       C1768   1.486       .  S
O786       Cr791   1.971       .  S
O787       Cr791   1.991       .  S
O787        C788   1.265       .  A
C788        C820   1.477       .  S
Cr789       O792   1.769       .  S
Cr790       O792   1.777       .  S
Cr791       O792   1.777       .  S
C793        C794   1.410       .  A
C793        C798   1.409       .  A
C794        C795   1.401       .  A
C794        H799   1.083       .  S
C795        C796   1.409       .  A
C795        O800   1.371       .  S
C796        C797   1.409       .  A
C797        C798   1.397       .  A
C797        H801   1.083       .  S
C798        O802   1.372       .  S
O800        H804   0.992       .  S
O802        H803   0.992       .  S
C805        C806   1.402       .  A
C805        C810   1.409       .  A
C806        C807   1.393       .  A
C806        H811   1.084       .  S
C807        C808   1.414       .  A
C807        O812   1.372       .  S
C808        C809   1.407       .  A
C809        C810   1.400       .  A
C809        H813   1.084       .  S
C810        O814   1.372       .  S
O812        H816   0.992       .  S
O814        H815   0.992       .  S
C817        C818   1.404       .  A
C817        C822   1.417       .  A
C818        C819   1.402       .  A
C818        H823   1.083       .  S
C819        C820   1.410       .  A
C819        O824   1.369       .  S
C820        C821   1.401       .  A
C821        C822   1.394       .  A
C821        H825   1.084       .  S
C822        O826   1.373       .  S
O824        H828   0.992       .  S
O826        H827   0.992       .  S
C829        C830   1.402       .  A
C829        C834   1.416       .  A
C830        C831   1.403       .  A
C830        H835   1.083       .  S
C831        C832   1.418       .  A
C831        O836   1.371       .  S
C832        C833   1.405       .  A
C833        C834   1.404       .  A
C833        H837   1.083       .  S
C834        O838   1.372       .  S
O836        H840   0.992       .  S
O838        H839   0.992       .  S
C841        C842   1.409       .  A
C841        C846   1.410       .  A
C842        C843   1.398       .  A
C842        H847   1.084       .  S
C843        C844   1.409       .  A
C843        O848   1.372       .  S
C844        C845   1.408       .  A
C845        C846   1.404       .  A
C845        H849   1.083       .  S
C846        O850   1.371       .  S
O848        H852   0.992       .  S
O850        H851   0.992       .  S
C853        C854   1.402       .  A
C853        C858   1.415       .  A
C854        C855   1.392       .  A
C854        H859   1.082       .  S
C855        C856   1.412       .  A
C855        O860   1.372       .  S
C856        C857   1.403       .  A
C857        C858   1.399       .  A
C857        H861   1.084       .  S
C858        O862   1.372       .  S
O860        H864   0.990       .  S
O862        H863   0.992       .  S
C865        C866   1.412       .  A
C865        C870   1.409       .  A
C866        C867   1.398       .  A
C866        H871   1.083       .  S
C867        C868   1.405       .  A
C867        O872   1.372       .  S
C868        C869   1.407       .  A
C869        C870   1.398       .  A
C869        H873   1.084       .  S
C870        O874   1.372       .  S
O872        H876   0.992       .  S
O874        H875   0.992   1_565  S
C877        C878   1.403       .  A
C877        C882   1.411       .  A
C878        C879   1.404       .  A
C878        H883   1.082       .  S
C879        C880   1.416       .  A
C879        O884   1.371       .  S
C880        C881   1.407       .  A
C881        C882   1.398       .  A
C881        H885   1.083       .  S
C882        O886   1.372       .  S
O884        H888   0.992       .  S
O886        H887   0.992       .  S
C889        C890   1.411       .  A
C889        C894   1.410       .  A
C890        C891   1.405       .  A
C890        H895   1.083       .  S
C891        C892   1.410       .  A
C891        O896   1.371       .  S
C892        C893   1.412       .  A
C893        C894   1.404       .  A
C893        H897   1.083       .  S
C894        O898   1.371       .  S
O896        H900   0.992       .  S
O898        H899   0.992       .  S
C901        C902   1.407       .  A
C901        C906   1.402       .  A
C902        C903   1.409       .  A
C902        H907   1.084       .  S
C903        C904   1.411       .  A
C903        O908   1.371       .  S
C904        C905   1.410       .  A
C905        C906   1.398       .  A
C905        H909   1.083       .  S
C906        O910   1.372       .  S
O908        H912   0.991       .  S
O910        H911   0.991       .  S
C913        C914   1.406       .  A
C913        C918   1.417   1_554  A
C914        C915   1.402   1_455  A
C914        H919   1.083       .  S
C915        C916   1.412   1_554  A
C915        O920   1.373       .  S
C916        C917   1.402       .  A
C917        C918   1.405   1_655  A
C917        H921   1.084       .  S
C918        O922   1.371       .  S
O920        H924   0.992       .  S
O922        H923   0.992       .  S
C925        C926   1.403       .  A
C925        C930   1.407       .  A
C926        C927   1.403       .  A
C926        H931   1.083   1_554  S
C927        C928   1.413       .  A
C927        O932   1.371   1_554  S
C928        C929   1.405       .  A
C929        C930   1.387       .  A
C929        H933   1.084       .  S
C930        O934   1.374       .  S
O932        H936   0.992       .  S
O934        H935   0.993       .  S
C937        C938   1.407       .  A
C937        C942   1.414       .  A
C938        C939   1.393       .  A
C938        H943   1.083       .  S
C939        C940   1.409       .  A
C939        O944   1.373       .  S
C940        C941   1.413       .  A
C941        C942   1.421       .  A
C941        H945   1.083       .  S
C942        O946   1.370       .  S
O944        H948   0.992       .  S
O946        H947   0.992       .  S
C949        C950   1.407       .  A
C949        C954   1.410       .  A
C950        C951   1.401       .  A
C950        H955   1.082       .  S
C951        C952   1.411       .  A
C951        O956   1.371       .  S
C952        C953   1.409       .  A
C953        C954   1.399       .  A
C953        H957   1.084       .  S
C954        O958   1.371       .  S
O956        H960   0.992       .  S
O958        H959   0.992       .  S
C961        C962   1.412       .  A
C961        C966   1.409   1_545  A
C962        C963   1.411   1_546  A
C962        H967   1.083       .  S
C963        C964   1.410   1_554  A
C963        O968   1.371       .  S
C964        C965   1.407       .  A
C965        C966   1.395       .  A
C965        H969   1.084       .  S
C966        O970   1.372   1_565  S
O968        H972   0.992       .  S
O970        H971   0.992   1_545  S
C973        C974   1.408       .  A
C973        C978   1.411       .  A
C974        C975   1.399       .  A
C974        H979   1.083       .  S
C975        C976   1.410       .  A
C975        O980   1.372       .  S
C976        C977   1.405       .  A
C977        C978   1.398       .  A
C977        H981   1.084   1_554  S
C978        O982   1.370   1_554  S
O980        H984   0.991       .  S
O982        H983   0.990       .  S
C985        C986   1.407       .  A
C985        C990   1.411       .  A
C986        C987   1.403       .  A
C986        H991   1.083       .  S
C987        C988   1.410       .  A
C987        O992   1.372       .  S
C988        C989   1.407       .  A
C989        C990   1.397       .  A
C989        H993   1.084       .  S
C990        O994   1.372       .  S
O992        H996   0.991       .  S
O994        H995   0.991       .  S
C997        C998   1.397       .  A
C997       C1002   1.411       .  A
C998        C999   1.404       .  A
C998       H1003   1.084       .  S
C999       C1000   1.420       .  A
C999       O1004   1.373       .  S
C1000      C1001   1.399       .  A
C1001      C1002   1.404       .  A
C1001      H1005   1.083       .  S
C1002      O1006   1.370       .  S
O1004      H1008   0.992       .  S
O1006      H1007   0.991       .  S
C1009      C1010   1.404       .  A
C1009      C1014   1.407       .  A
C1010      C1011   1.409       .  A
C1010      H1015   1.083       .  S
C1011      C1012   1.412       .  A
C1011      O1016   1.373       .  S
C1012      C1013   1.403       .  A
C1013      C1014   1.390       .  A
C1013      H1017   1.083       .  S
C1014      O1018   1.374       .  S
O1016      H1020   0.990   1_556  S
O1018      H1019   0.992       .  S
C1021      C1022   1.404       .  A
C1021      C1026   1.404       .  A
C1022      C1023   1.396       .  A
C1022      H1027   1.084       .  S
C1023      C1024   1.404       .  A
C1023      O1028   1.372       .  S
C1024      C1025   1.408       .  A
C1025      C1026   1.399       .  A
C1025      H1029   1.084       .  S
C1026      O1030   1.372       .  S
O1028      H1032   0.991       .  S
O1030      H1031   0.992       .  S
C1033      C1034   1.408   1_556  A
C1033      C1038   1.410       .  A
C1034      C1035   1.400       .  A
C1034      H1039   1.084       .  S
C1035      C1036   1.412       .  A
C1035      O1040   1.372       .  S
C1036      C1037   1.410   1_554  A
C1037      C1038   1.408       .  A
C1037      H1041   1.083       .  S
C1038      O1042   1.371       .  S
O1040      H1044   0.992       .  S
O1042      H1043   0.991       .  S
C1045      C1046   1.411   1_565  A
C1045      C1050   1.412   1_556  A
C1046      C1047   1.400   1_556  A
C1046      H1051   1.083       .  S
C1047      C1048   1.405       .  A
C1047      O1052   1.372       .  S
C1048      C1049   1.405   1_545  A
C1049      C1050   1.404       .  A
C1049      H1053   1.084       .  S
C1050      O1054   1.371       .  S
O1052      H1056   0.991       .  S
O1054      H1055   0.990       .  S
C1057      C1058   1.406   1_455  A
C1057      C1062   1.405       .  A
C1058      C1059   1.406       .  A
C1058      H1063   1.084       .  S
C1059      C1060   1.412       .  A
C1059      O1064   1.371       .  S
C1060      C1061   1.411   1_656  A
C1061      C1062   1.401   1_554  A
C1061      H1065   1.083       .  S
C1062      O1066   1.372       .  S
O1064      H1068   0.991       .  S
O1066      H1067   0.991       .  S
C1069      C1070   1.412       .  A
C1069      C1074   1.409       .  A
C1070      C1071   1.420       .  A
C1070      H1075   1.083       .  S
C1071      C1072   1.416       .  A
C1071      O1076   1.371       .  S
C1072      C1073   1.407       .  A
C1073      C1074   1.395       .  A
C1073      H1077   1.083       .  S
C1074      O1078   1.372       .  S
O1076      H1080   0.992       .  S
O1078      H1079   0.991       .  S
C1081      C1082   1.407       .  A
C1081      C1086   1.414       .  A
C1082      C1083   1.402       .  A
C1082      H1087   1.083       .  S
C1083      C1084   1.414       .  A
C1083      O1088   1.371       .  S
C1084      C1085   1.408       .  A
C1085      C1086   1.405       .  A
C1085      H1089   1.083       .  S
C1086      O1090   1.371       .  S
O1088      H1092   0.992       .  S
O1090      H1091   0.992       .  S
C1093      C1094   1.406       .  A
C1093      C1098   1.403       .  A
C1094      C1095   1.399       .  A
C1094      H1099   1.083       .  S
C1095      C1096   1.408       .  A
C1095      O1100   1.371       .  S
C1096      C1097   1.409       .  A
C1097      C1098   1.388       .  A
C1097      H1101   1.084       .  S
C1098      O1102   1.373       .  S
O1100      H1104   0.992       .  S
O1102      H1103   0.991       .  S
C1105      C1106   1.409       .  A
C1105      C1110   1.405       .  A
C1106      C1107   1.401       .  A
C1106      H1111   1.084       .  S
C1107      C1108   1.409   1_556  A
C1107      O1112   1.371       .  S
C1108      C1109   1.411       .  A
C1109      C1110   1.398   1_554  A
C1109      H1113   1.083       .  S
C1110      O1114   1.371       .  S
O1112      H1116   0.991       .  S
O1114      H1115   0.991       .  S
C1117      C1118   1.405   1_455  A
C1117      C1122   1.407   1_556  A
C1118      C1119   1.404   1_556  A
C1118      H1123   1.084       .  S
C1119      C1120   1.412       .  A
C1119      O1124   1.371   1_554  S
C1120      C1121   1.408   1_655  A
C1121      C1122   1.403       .  A
C1121      H1125   1.083       .  S
C1122      O1126   1.372       .  S
O1124      H1128   0.991       .  S
O1126      H1127   0.992       .  S
C1129      C1130   1.408       .  A
C1129      C1134   1.413       .  A
C1130      C1131   1.394       .  A
C1130      H1135   1.083       .  S
C1131      C1132   1.408       .  A
C1131      O1136   1.373       .  S
C1132      C1133   1.410       .  A
C1133      C1134   1.416       .  A
C1133      H1137   1.083       .  S
C1134      O1138   1.370       .  S
O1136      H1140   0.992       .  S
O1138      H1139   0.991       .  S
C1141      C1142   1.401       .  A
C1141      C1146   1.417       .  A
C1142      C1143   1.397       .  A
C1142      H1147   1.083       .  S
C1143      C1144   1.416       .  A
C1143      O1148   1.373       .  S
C1144      C1145   1.403       .  A
C1145      C1146   1.405       .  A
C1145      H1149   1.083       .  S
C1146      O1150   1.371       .  S
O1148      H1152   0.993       .  S
O1150      H1151   0.992       .  S
C1153      C1154   1.407       .  A
C1153      C1158   1.407       .  A
C1154      C1155   1.397       .  A
C1154      H1159   1.084       .  S
C1155      C1156   1.409       .  A
C1155      O1160   1.371       .  S
C1156      C1157   1.407       .  A
C1157      C1158   1.394       .  A
C1157      H1161   1.084       .  S
C1158      O1162   1.371       .  S
O1160      H1164   0.991       .  S
O1162      H1163   0.991       .  S
C1165      C1166   1.407       .  A
C1165      C1170   1.402       .  A
C1166      C1167   1.394       .  A
C1166      H1171   1.082       .  S
C1167      C1168   1.401       .  A
C1167      O1172   1.372       .  S
C1168      C1169   1.406       .  A
C1169      C1170   1.397       .  A
C1169      H1173   1.084   1_655  S
C1170      O1174   1.372   1_545  S
O1172      H1176   0.992       .  S
O1174      H1175   0.991       .  S
C1177      C1178   1.406       .  A
C1177      C1182   1.414       .  A
C1178      C1179   1.409       .  A
C1178      H1183   1.083       .  S
C1179      C1180   1.417       .  A
C1179      O1184   1.371       .  S
C1180      C1181   1.406       .  A
C1181      C1182   1.402       .  A
C1181      H1185   1.083   1_655  S
C1182      O1186   1.373       .  S
O1184      H1188   0.992       .  S
O1186      H1187   0.992       .  S
C1189      C1190   1.409   1_565  A
C1189      C1194   1.412       .  A
C1190      C1191   1.401       .  A
C1190      H1195   1.083       .  S
C1191      C1192   1.405   1_556  A
C1191      O1196   1.372       .  S
C1192      C1193   1.404   1_545  A
C1193      C1194   1.405   1_554  A
C1193      H1197   1.084       .  S
C1194      O1198   1.373       .  S
O1196      H1200   0.991       .  S
O1198      H1199   0.992   1_556  S
C1201      C1202   1.404       .  A
C1201      C1206   1.408       .  A
C1202      C1203   1.402       .  A
C1202      H1207   1.084       .  S
C1203      C1204   1.408   1_554  A
C1203      O1208   1.372       .  S
C1204      C1205   1.403       .  A
C1205      C1206   1.403   1_556  A
C1205      H1209   1.084       .  S
C1206      O1210   1.373   1_554  S
O1208      H1212   0.991       .  S
O1210      H1211   0.992       .  S
C1213      C1214   1.405       .  A
C1213      C1218   1.419       .  A
C1214      C1215   1.408       .  A
C1214      H1219   1.083       .  S
C1215      C1216   1.414       .  A
C1215      O1220   1.372       .  S
C1216      C1217   1.398       .  A
C1217      C1218   1.405       .  A
C1217      H1221   1.084       .  S
C1218      O1222   1.372       .  S
O1220      H1224   0.991       .  S
O1222      H1223   0.992       .  S
C1225      C1226   1.406       .  A
C1225      C1230   1.418       .  A
C1226      C1227   1.405       .  A
C1226      H1231   1.083       .  S
C1227      C1228   1.414       .  A
C1227      O1232   1.371       .  S
C1228      C1229   1.401       .  A
C1229      C1230   1.396       .  A
C1229      H1233   1.084       .  S
C1230      O1234   1.372       .  S
O1232      H1236   0.991       .  S
O1234      H1235   0.992       .  S
C1237      C1238   1.410       .  A
C1237      C1242   1.408       .  A
C1238      C1239   1.408       .  A
C1238      H1243   1.083       .  S
C1239      C1240   1.411       .  A
C1239      O1244   1.371       .  S
C1240      C1241   1.414       .  A
C1241      C1242   1.405       .  A
C1241      H1245   1.083       .  S
C1242      O1246   1.372       .  S
O1244      H1248   0.992       .  S
O1246      H1247   0.992       .  S
C1249      C1250   1.402       .  A
C1249      C1254   1.412       .  A
C1250      C1251   1.397       .  A
C1250      H1255   1.084       .  S
C1251      C1252   1.416       .  A
C1251      O1256   1.372       .  S
C1252      C1253   1.406       .  A
C1253      C1254   1.402       .  A
C1253      H1257   1.083       .  S
C1254      O1258   1.372       .  S
O1256      H1260   0.994       .  S
O1258      H1259   0.991       .  S
C1261      C1262   1.411       .  A
C1261      C1266   1.402       .  A
C1262      C1263   1.406       .  A
C1262      H1267   1.082       .  S
C1263      C1264   1.407       .  A
C1263      O1268   1.371       .  S
C1264      C1265   1.416       .  A
C1265      C1266   1.402       .  A
C1265      H1269   1.083       .  S
C1266      O1270   1.372       .  S
O1268      H1272   0.992       .  S
O1270      H1271   0.992       .  S
C1273      C1274   1.402       .  A
C1273      C1278   1.421       .  A
C1274      C1275   1.403       .  A
C1274      H1279   1.083       .  S
C1275      C1276   1.419       .  A
C1275      O1280   1.371       .  S
C1276      C1277   1.403       .  A
C1277      C1278   1.404       .  A
C1277      H1281   1.083       .  S
C1278      O1282   1.372       .  S
O1280      H1284   0.992       .  S
O1282      H1283   0.992       .  S
C1285      C1286   1.406       .  A
C1285      C1290   1.415       .  A
C1286      C1287   1.402       .  A
C1286      H1291   1.084       .  S
C1287      C1288   1.409       .  A
C1287      O1292   1.372       .  S
C1288      C1289   1.402       .  A
C1289      C1290   1.401       .  A
C1289      H1293   1.084       .  S
C1290      O1294   1.371       .  S
O1292      H1296   0.991       .  S
O1294      H1295   0.992       .  S
C1297      C1298   1.405       .  A
C1297      C1302   1.417       .  A
C1298      C1299   1.405       .  A
C1298      H1303   1.084       .  S
C1299      C1300   1.409       .  A
C1299      O1304   1.373       .  S
C1300      C1301   1.400       .  A
C1301      C1302   1.399       .  A
C1301      H1305   1.084       .  S
C1302      O1306   1.371       .  S
O1304      H1308   0.992       .  S
O1306      H1307   0.991       .  S
C1309      C1310   1.402       .  A
C1309      C1314   1.422   1_655  A
C1310      C1311   1.407       .  A
C1310      H1315   1.083       .  S
C1311      C1312   1.418   1_655  A
C1311      O1316   1.373       .  S
C1312      C1313   1.397       .  A
C1313      C1314   1.400       .  A
C1313      H1317   1.084       .  S
C1314      O1318   1.372       .  S
O1316      H1320   0.992       .  S
O1318      H1319   0.992       .  S
C1321      C1322   1.409       .  A
C1321      C1326   1.410       .  A
C1322      C1323   1.407       .  A
C1322      H1327   1.083       .  S
C1323      C1324   1.407       .  A
C1323      O1328   1.371       .  S
C1324      C1325   1.398       .  A
C1325      C1326   1.390       .  A
C1325      H1329   1.085       .  S
C1326      O1330   1.372       .  S
O1328      H1332   0.990       .  S
O1330      H1331   0.992       .  S
C1333      C1334   1.409       .  A
C1333      C1338   1.416       .  A
C1334      C1335   1.406       .  A
C1334      H1339   1.083       .  S
C1335      C1336   1.410       .  A
C1335      O1340   1.371       .  S
C1336      C1337   1.402       .  A
C1337      C1338   1.396       .  A
C1337      H1341   1.084       .  S
C1338      O1342   1.372       .  S
O1340      H1344   0.991       .  S
O1342      H1343   0.992       .  S
C1345      C1346   1.403       .  A
C1345      C1350   1.412       .  A
C1346      C1347   1.399       .  A
C1346      H1351   1.084       .  S
C1347      C1348   1.417       .  A
C1347      O1352   1.372       .  S
C1348      C1349   1.406       .  A
C1349      C1350   1.403       .  A
C1349      H1353   1.083       .  S
C1350      O1354   1.371       .  S
O1352      H1356   0.992       .  S
O1354      H1355   0.992       .  S
C1357      C1358   1.406       .  A
C1357      C1362   1.418       .  A
C1358      C1359   1.403       .  A
C1358      H1363   1.083       .  S
C1359      C1360   1.407       .  A
C1359      O1364   1.370       .  S
C1360      C1361   1.400       .  A
C1361      C1362   1.402       .  A
C1361      H1365   1.084       .  S
C1362      O1366   1.373       .  S
O1364      H1368   0.991       .  S
O1366      H1367   0.992       .  S
C1369      C1370   1.403       .  A
C1369      C1374   1.410       .  A
C1370      C1371   1.404       .  A
C1370      H1375   1.084       .  S
C1371      C1372   1.410       .  A
C1371      O1376   1.373       .  S
C1372      C1373   1.404       .  A
C1373      C1374   1.403       .  A
C1373      H1377   1.084       .  S
C1374      O1378   1.371       .  S
O1376      H1380   0.992       .  S
O1378      H1379   0.992       .  S
C1381      C1382   1.411   1_545  A
C1381      C1386   1.403       .  A
C1382      C1383   1.410       .  A
C1382      H1387   1.084       .  S
C1383      C1384   1.408       .  A
C1383      O1388   1.371       .  S
C1384      C1385   1.412   1_565  A
C1385      C1386   1.404       .  A
C1385      H1389   1.083       .  S
C1386      O1390   1.371       .  S
O1388      H1392   0.992       .  S
O1390      H1391   0.991       .  S
C1393      C1394   1.406       .  A
C1393      C1398   1.403       .  A
C1394      C1395   1.403       .  A
C1394      H1399   1.083       .  S
C1395      C1396   1.406       .  A
C1395      O1400   1.371       .  S
C1396      C1397   1.407       .  A
C1397      C1398   1.393       .  A
C1397      H1401   1.084   1_455  S
C1398      O1402   1.372       .  S
O1400      H1404   0.991       .  S
O1402      H1403   0.992       .  S
C1405      C1406   1.404       .  A
C1405      C1410   1.401       .  A
C1406      C1407   1.400       .  A
C1406      H1411   1.083       .  S
C1407      C1408   1.407       .  A
C1407      O1412   1.372       .  S
C1408      C1409   1.408       .  A
C1409      C1410   1.396       .  A
C1409      H1413   1.084   1_455  S
C1410      O1414   1.372       .  S
O1412      H1416   0.991       .  S
O1414      H1415   0.992       .  S
C1417      C1418   1.403       .  A
C1417      C1422   1.412       .  A
C1418      C1419   1.390       .  A
C1418      H1423   1.084       .  S
C1419      C1420   1.405       .  A
C1419      O1424   1.373       .  S
C1420      C1421   1.401       .  A
C1421      C1422   1.402       .  A
C1421      H1425   1.084       .  S
C1422      O1426   1.371       .  S
O1424      H1428   0.992       .  S
O1426      H1427   0.991       .  S
C1429      C1430   1.406       .  A
C1429      C1434   1.414       .  A
C1430      C1431   1.408       .  A
C1430      H1435   1.083       .  S
C1431      C1432   1.415       .  A
C1431      O1436   1.370       .  S
C1432      C1433   1.404       .  A
C1433      C1434   1.392       .  A
C1433      H1437   1.084       .  S
C1434      O1438   1.373       .  S
O1436      H1440   0.991       .  S
O1438      H1439   0.992       .  S
C1441      C1442   1.410       .  A
C1441      C1446   1.411       .  A
C1442      C1443   1.404       .  A
C1442      H1447   1.083       .  S
C1443      C1444   1.410       .  A
C1443      O1448   1.371       .  S
C1444      C1445   1.411       .  A
C1445      C1446   1.404       .  A
C1445      H1449   1.083       .  S
C1446      O1450   1.372       .  S
O1448      H1452   0.992       .  S
O1450      H1451   0.991       .  S
C1453      C1454   1.402       .  A
C1453      C1458   1.408       .  A
C1454      C1455   1.402       .  A
C1454      H1459   1.084       .  S
C1455      C1456   1.414       .  A
C1455      O1460   1.373       .  S
C1456      C1457   1.406       .  A
C1457      C1458   1.401       .  A
C1457      H1461   1.084       .  S
C1458      O1462   1.372       .  S
O1460      H1464   0.992       .  S
O1462      H1463   0.991       .  S
C1465      C1466   1.406       .  A
C1465      C1470   1.409       .  A
C1466      C1467   1.404       .  A
C1466      H1471   1.084       .  S
C1467      C1468   1.412       .  A
C1467      O1472   1.373       .  S
C1468      C1469   1.408       .  A
C1469      C1470   1.400       .  A
C1469      H1473   1.083       .  S
C1470      O1474   1.372       .  S
O1472      H1476   0.992       .  S
O1474      H1475   0.991       .  S
C1477      C1478   1.412       .  A
C1477      C1482   1.412       .  A
C1478      C1479   1.402       .  A
C1478      H1483   1.083       .  S
C1479      C1480   1.404       .  A
C1479      O1484   1.372       .  S
C1480      C1481   1.408       .  A
C1481      C1482   1.411       .  A
C1481      H1485   1.084       .  S
C1482      O1486   1.371       .  S
O1484      H1488   0.989       .  S
O1486      H1487   0.991       .  S
C1489      C1490   1.409       .  A
C1489      C1494   1.414       .  A
C1490      C1491   1.403       .  A
C1490      H1495   1.083       .  S
C1491      C1492   1.406       .  A
C1491      O1496   1.371       .  S
C1492      C1493   1.404       .  A
C1493      C1494   1.405       .  A
C1493      H1497   1.084       .  S
C1494      O1498   1.373       .  S
O1496      H1500   0.991       .  S
O1498      H1499   0.992       .  S
C1501      C1502   1.411       .  A
C1501      C1506   1.411       .  A
C1502      C1503   1.401       .  A
C1502      H1507   1.083       .  S
C1503      C1504   1.404       .  A
C1503      O1508   1.373       .  S
C1504      C1505   1.405       .  A
C1505      C1506   1.406       .  A
C1505      H1509   1.084       .  S
C1506      O1510   1.371       .  S
O1508      H1512   0.992       .  S
O1510      H1511   0.991       .  S
C1513      C1514   1.403       .  A
C1513      C1518   1.419       .  A
C1514      C1515   1.402   1_655  A
C1514      H1519   1.083       .  S
C1515      C1516   1.416       .  A
C1515      O1520   1.372       .  S
C1516      C1517   1.403       .  A
C1517      C1518   1.406   1_455  A
C1517      H1521   1.083       .  S
C1518      O1522   1.371       .  S
O1520      H1524   0.991       .  S
O1522      H1523   0.991       .  S
C1525      C1526   1.406       .  A
C1525      C1530   1.409       .  A
C1526      C1527   1.407       .  A
C1526      H1531   1.084       .  S
C1527      C1528   1.410       .  A
C1527      O1532   1.371       .  S
C1528      C1529   1.405       .  A
C1529      C1530   1.402       .  A
C1529      H1533   1.084       .  S
C1530      O1534   1.372       .  S
O1532      H1536   0.992       .  S
O1534      H1535   0.991       .  S
C1537      C1538   1.408       .  A
C1537      C1542   1.405       .  A
C1538      C1539   1.405       .  A
C1538      H1543   1.084       .  S
C1539      C1540   1.411       .  A
C1539      O1544   1.372       .  S
C1540      C1541   1.411       .  A
C1541      C1542   1.399       .  A
C1541      H1545   1.083       .  S
C1542      O1546   1.372       .  S
O1544      H1548   0.992       .  S
O1546      H1547   0.991       .  S
C1549      C1550   1.405       .  A
C1549      C1554   1.419       .  A
C1550      C1551   1.406       .  A
C1550      H1555   1.083       .  S
C1551      C1552   1.411       .  A
C1551      O1556   1.371       .  S
C1552      C1553   1.398       .  A
C1553      C1554   1.403       .  A
C1553      H1557   1.084       .  S
C1554      O1558   1.372       .  S
O1556      H1560   0.991       .  S
O1558      H1559   0.992       .  S
C1561      C1562   1.408       .  A
C1561      C1566   1.411       .  A
C1562      C1563   1.401       .  A
C1562      H1567   1.083       .  S
C1563      C1564   1.409       .  A
C1563      O1568   1.371       .  S
C1564      C1565   1.407       .  A
C1565      C1566   1.399       .  A
C1565      H1569   1.084       .  S
C1566      O1570   1.372       .  S
O1568      H1572   0.992       .  S
O1570      H1571   0.992       .  S
C1573      C1574   1.396       .  A
C1573      C1578   1.410       .  A
C1574      C1575   1.401       .  A
C1574      H1579   1.084       .  S
C1575      C1576   1.420       .  A
C1575      O1580   1.373       .  S
C1576      C1577   1.405       .  A
C1577      C1578   1.404       .  A
C1577      H1581   1.083       .  S
C1578      O1582   1.371       .  S
O1580      H1584   0.993       .  S
O1582      H1583   0.991       .  S
C1585      C1586   1.412       .  A
C1585      C1590   1.413       .  A
C1586      C1587   1.403       .  A
C1586      H1591   1.083       .  S
C1587      C1588   1.405       .  A
C1587      O1592   1.371       .  S
C1588      C1589   1.405       .  A
C1589      C1590   1.404       .  A
C1589      H1593   1.084       .  S
C1590      O1594   1.371       .  S
O1592      H1596   0.990       .  S
O1594      H1595   0.991       .  S
C1597      C1598   1.405       .  A
C1597      C1602   1.417       .  A
C1598      C1599   1.409       .  A
C1598      H1603   1.083       .  S
C1599      C1600   1.418       .  A
C1599      O1604   1.371       .  S
C1600      C1601   1.405       .  A
C1601      C1602   1.406       .  A
C1601      H1605   1.083       .  S
C1602      O1606   1.372       .  S
O1604      H1608   0.992       .  S
O1606      H1607   0.992       .  S
C1609      C1610   1.404       .  A
C1609      C1614   1.407       .  A
C1610      C1611   1.391       .  A
C1610      H1615   1.085       .  S
C1611      C1612   1.405       .  A
C1611      O1616   1.373       .  S
C1612      C1613   1.407       .  A
C1613      C1614   1.406       .  A
C1613      H1617   1.084       .  S
C1614      O1618   1.371       .  S
O1616      H1620   0.988       .  S
O1618      H1619   0.992       .  S
C1621      C1622   1.405       .  A
C1621      C1626   1.410       .  A
C1622      C1623   1.404       .  A
C1622      H1627   1.084       .  S
C1623      C1624   1.410       .  A
C1623      O1628   1.371       .  S
C1624      C1625   1.406       .  A
C1625      C1626   1.404       .  A
C1625      H1629   1.084       .  S
C1626      O1630   1.371       .  S
O1628      H1632   0.991       .  S
O1630      H1631   0.991       .  S
C1633      C1634   1.401       .  A
C1633      C1638   1.417       .  A
C1634      C1635   1.400       .  A
C1634      H1639   1.084       .  S
C1635      C1636   1.417       .  A
C1635      O1640   1.372       .  S
C1636      C1637   1.403       .  A
C1637      C1638   1.403       .  A
C1637      H1641   1.084       .  S
C1638      O1642   1.371       .  S
O1640      H1644   0.990       .  S
O1642      H1643   0.991       .  S
C1645      C1646   1.410       .  A
C1645      C1650   1.409       .  A
C1646      C1647   1.398       .  A
C1646      H1651   1.084       .  S
C1647      C1648   1.410       .  A
C1647      O1652   1.371       .  S
C1648      C1649   1.409       .  A
C1649      C1650   1.404       .  A
C1649      H1653   1.082       .  S
C1650      O1654   1.371       .  S
O1652      H1656   0.985       .  S
O1654      H1655   0.993       .  S
C1657      C1658   1.403       .  A
C1657      C1662   1.406       .  A
C1658      C1659   1.409       .  A
C1658      H1663   1.084       .  S
C1659      C1660   1.412       .  A
C1659      O1664   1.374       .  S
C1660      C1661   1.403       .  A
C1661      C1662   1.389       .  A
C1661      H1665   1.083       .  S
C1662      O1666   1.372       .  S
O1664      H1668   0.990       .  S
O1666      H1667   0.987       .  S
C1669      C1670   1.399       .  A
C1669      C1674   1.408       .  A
C1670      C1671   1.400       .  A
C1670      H1675   1.084       .  S
C1671      C1672   1.418       .  A
C1671      O1676   1.371       .  S
C1672      C1673   1.405       .  A
C1673      C1674   1.404       .  A
C1673      H1677   1.083       .  S
C1674      O1678   1.370       .  S
O1676      H1680   0.991       .  S
O1678      H1679   0.982       .  S
C1681      C1682   1.410       .  A
C1681      C1686   1.414       .  A
C1682      C1683   1.405       .  A
C1682      H1687   1.083       .  S
C1683      C1684   1.406       .  A
C1683      O1688   1.371       .  S
C1684      C1685   1.404       .  A
C1685      C1686   1.406       .  A
C1685      H1689   1.084       .  S
C1686      O1690   1.373       .  S
O1688      H1692   0.991       .  S
O1690      H1691   0.991       .  S
C1693      C1694   1.411       .  A
C1693      C1698   1.402       .  A
C1694      C1695   1.414       .  A
C1694      H1699   1.084       .  S
C1695      C1696   1.411       .  A
C1695      O1700   1.371       .  S
C1696      C1697   1.412       .  A
C1697      C1698   1.398       .  A
C1697      H1701   1.083       .  S
C1698      O1702   1.372       .  S
O1700      H1704   0.992       .  S
O1702      H1703   0.990       .  S
C1705      C1706   1.405       .  A
C1705      C1710   1.416       .  A
C1706      C1707   1.402       .  A
C1706      H1711   1.084       .  S
C1707      C1708   1.415       .  A
C1707      O1712   1.373       .  S
C1708      C1709   1.402       .  A
C1709      C1710   1.400       .  A
C1709      H1713   1.084       .  S
C1710      O1714   1.371       .  S
O1712      H1716   0.992       .  S
O1714      H1715   0.991       .  S
C1717      C1718   1.404       .  A
C1717      C1722   1.419       .  A
C1718      C1719   1.403       .  A
C1718      H1723   1.083       .  S
C1719      C1720   1.411       .  A
C1719      O1724   1.370       .  S
C1720      C1721   1.397       .  A
C1721      C1722   1.390       .  A
C1721      H1725   1.084       .  S
C1722      O1726   1.373       .  S
O1724      H1728   0.992       .  S
O1726      H1727   0.992       .  S
C1729      C1730   1.407       .  A
C1729      C1734   1.409       .  A
C1730      C1731   1.399   1_545  A
C1730      H1735   1.084       .  S
C1731      C1732   1.411       .  A
C1731      O1736   1.371       .  S
C1732      C1733   1.414       .  A
C1733      C1734   1.412   1_565  A
C1733      H1737   1.083       .  S
C1734      O1738   1.371       .  S
O1736      H1740   0.991       .  S
O1738      H1739   0.991       .  S
C1741      C1742   1.403       .  A
C1741      C1746   1.410       .  A
C1742      C1743   1.404       .  A
C1742      H1747   1.084       .  S
C1743      C1744   1.411       .  A
C1743      O1748   1.372       .  S
C1744      C1745   1.405       .  A
C1745      C1746   1.403       .  A
C1745      H1749   1.084       .  S
C1746      O1750   1.372       .  S
O1748      H1752   0.992       .  S
O1750      H1751   0.991       .  S
C1753      C1754   1.409       .  A
C1753      C1758   1.404       .  A
C1754      C1755   1.403       .  A
C1754      H1759   1.084       .  S
C1755      C1756   1.410       .  A
C1755      O1760   1.371       .  S
C1756      C1757   1.411       .  A
C1757      C1758   1.401       .  A
C1757      H1761   1.083       .  S
C1758      O1762   1.371       .  S
O1760      H1764   0.991       .  S
O1762      H1763   0.992       .  S
C1765      C1766   1.395       .  A
C1765      C1770   1.410       .  A
C1766      C1767   1.399       .  A
C1766      H1771   1.084       .  S
C1767      C1768   1.419       .  A
C1767      O1772   1.373       .  S
C1768      C1769   1.401       .  A
C1769      C1770   1.406       .  A
C1769      H1773   1.083       .  S
C1770      O1774   1.369       .  S
O1772      H1776   0.992       .  S
O1774      H1775   0.991       .  S
C1777      C1778   1.405       .  A
C1777      C1782   1.405       .  A
C1778      C1779   1.403   1_655  A
C1778      H1783   1.084   1_655  S
C1779      C1780   1.409       .  A
C1779      O1784   1.371       .  S
C1780      C1781   1.409   1_455  A
C1781      C1782   1.401       .  A
C1781      H1785   1.084       .  S
C1782      O1786   1.372       .  S
O1784      H1788   0.991       .  S
O1786      H1787   0.991       .  S
C1789      C1790   1.408       .  A
C1789      C1794   1.412       .  A
C1790      C1791   1.402       .  A
C1790      H1795   1.083       .  S
C1791      C1792   1.406       .  A
C1791      O1796   1.373       .  S
C1792      C1793   1.404       .  A
C1793      C1794   1.401       .  A
C1793      H1797   1.084       .  S
C1794      O1798   1.371       .  S
O1796      H1800   0.991       .  S
O1798      H1799   0.991       .  S
C1801      C1802   1.407       .  A
C1801      C1806   1.402       .  A
C1802      C1803   1.411       .  A
C1802      H1807   1.084       .  S
C1803      C1804   1.412       .  A
C1803      O1808   1.371       .  S
C1804      C1805   1.411       .  A
C1805      C1806   1.396       .  A
C1805      H1809   1.083       .  S
C1806      O1810   1.372       .  S
O1808      H1812   0.992       .  S
O1810      H1811   0.991       .  S
C1813      C1814   1.410       .  A
C1813      C1818   1.405       .  A
C1814      C1815   1.408       .  A
C1814      H1819   1.083       .  S
C1815      C1816   1.410       .  A
C1815      O1820   1.371       .  S
C1816      C1817   1.411       .  A
C1817      C1818   1.397       .  A
C1817      H1821   1.083       .  S
C1818      O1822   1.372       .  S
O1820      H1824   0.991       .  S
O1822      H1823   0.992       .  S
C1825      C1826   1.405       .  A
C1825      C1830   1.416       .  A
C1826      C1827   1.400       .  A
C1826      H1831   1.084       .  S
C1827      C1828   1.405       .  A
C1827      O1832   1.371       .  S
C1828      C1829   1.399       .  A
C1829      C1830   1.400       .  A
C1829      H1833   1.084       .  S
C1830      O1834   1.373       .  S
O1832      H1836   0.991       .  S
O1834      H1835   0.992       .  S
C1837      C1838   1.409       .  A
C1837      C1842   1.412       .  A
C1838      C1839   1.402       .  A
C1838      H1843   1.083       .  S
C1839      C1840   1.405       .  A
C1839      O1844   1.372       .  S
C1840      C1841   1.406       .  A
C1841      C1842   1.405       .  A
C1841      H1845   1.084       .  S
C1842      O1846   1.371       .  S
O1844      H1848   0.992       .  S
O1846      H1847   0.992       .  S
C1849      C1850   1.411   1_455  A
C1849      C1854   1.402       .  A
C1850      C1851   1.411       .  A
C1850      H1855   1.084       .  S
C1851      C1852   1.408       .  A
C1851      O1856   1.371       .  S
C1852      C1853   1.411   1_655  A
C1853      C1854   1.401       .  A
C1853      H1857   1.083       .  S
C1854      O1858   1.372       .  S
O1856      H1860   0.992       .  S
O1858      H1859   0.992       .  S
C1861      C1862   1.412       .  A
C1861      C1866   1.403       .  A
C1862      C1863   1.399       .  A
C1862      H1867   1.082       .  S
C1863      C1864   1.401       .  A
C1863      O1868   1.372       .  S
C1864      C1865   1.405       .  A
C1865      C1866   1.400       .  A
C1865      H1869   1.084       .  S
C1866      O1870   1.371   1_545  S
O1868      H1872   0.992       .  S
O1870      H1871   0.991   1_565  S
C1873      C1874   1.402       .  A
C1873      C1878   1.409   1_545  A
C1874      C1875   1.405       .  A
C1874      H1879   1.084       .  S
C1875      C1876   1.416   1_545  A
C1875      O1880   1.374       .  S
C1876      C1877   1.406       .  A
C1877      C1878   1.404       .  A
C1877      H1881   1.084       .  S
C1878      O1882   1.373       .  S
O1880      H1884   0.987       .  S
O1882      H1883   0.993       .  S
C1885      C1886   1.401       .  A
C1885      C1890   1.409   1_455  A
C1886      C1887   1.400       .  A
C1886      H1891   1.084       .  S
C1887      C1888   1.416   1_455  A
C1887      O1892   1.371       .  S
C1888      C1889   1.407       .  A
C1889      C1890   1.405       .  A
C1889      H1893   1.083       .  S
C1890      O1894   1.371       .  S
O1892      H1896   0.991       .  S
O1894      H1895   0.992       .  S
C1897      C1898   1.408       .  A
C1897      C1902   1.416       .  A
C1898      C1899   1.396       .  A
C1898      H1903   1.083       .  S
C1899      C1900   1.408       .  A
C1899      O1904   1.373       .  S
C1900      C1901   1.413       .  A
C1901      C1902   1.420       .  A
C1901      H1905   1.083       .  S
C1902      O1906   1.371       .  S
O1904      H1908   0.992       .  S
O1906      H1907   0.991       .  S
C1909      C1910   1.409       .  A
C1909      C1914   1.411       .  A
C1910      C1911   1.404       .  A
C1910      H1915   1.083       .  S
C1911      C1912   1.410       .  A
C1911      O1916   1.372       .  S
C1912      C1913   1.406       .  A
C1913      C1914   1.399       .  A
C1913      H1917   1.084       .  S
C1914      O1918   1.372       .  S
O1916      H1920   0.990       .  S
O1918      H1919   0.991       .  S
C1921      C1922   1.405       .  A
C1921      C1926   1.409       .  A
C1922      C1923   1.405       .  A
C1922      H1927   1.084       .  S
C1923      C1924   1.417       .  A
C1923      O1928   1.372       .  S
C1924      C1925   1.408       .  A
C1925      C1926   1.404       .  A
C1925      H1929   1.083       .  S
C1926      O1930   1.372       .  S
O1928      H1932   0.992       .  S
O1930      H1931   0.992       .  S
C1933      C1934   1.401       .  A
C1933      C1938   1.410       .  A
C1934      C1935   1.404       .  A
C1934      H1939   1.084       .  S
C1935      C1936   1.418       .  A
C1935      O1940   1.371       .  S
C1936      C1937   1.406       .  A
C1937      C1938   1.402       .  A
C1937      H1941   1.084       .  S
C1938      O1942   1.371       .  S
O1940      H1944   0.991       .  S
O1942      H1943   0.991       .  S
C1945      C1946   1.410       .  A
C1945      C1950   1.410       .  A
C1946      C1947   1.403       .  A
C1946      H1951   1.083       .  S
C1947      C1948   1.406       .  A
C1947      O1952   1.372       .  S
C1948      C1949   1.408       .  A
C1949      C1950   1.402       .  A
C1949      H1953   1.084       .  S
C1950      O1954   1.371       .  S
O1952      H1956   0.993       .  S
O1954      H1955   0.990       .  S
C1957      C1958   1.414   1_545  A
C1957      C1962   1.405       .  A
C1958      C1959   1.404       .  A
C1958      H1963   1.081       .  S
C1959      C1960   1.404       .  A
C1959      O1964   1.372       .  S
C1960      C1961   1.415   1_565  A
C1961      C1962   1.405       .  A
C1961      H1965   1.084       .  S
C1962      O1966   1.371       .  S
O1964      H1968   0.992       .  S
O1966      H1967   0.991       .  S
C1969      C1970   1.406       .  A
C1969      C1974   1.398       .  A
C1970      C1971   1.401       .  A
C1970      H1975   1.084   1_545  S
C1971      C1972   1.406       .  A
C1971      O1976   1.372       .  S
C1972      C1973   1.410       .  A
C1973      C1974   1.393       .  A
C1973      H1977   1.084       .  S
C1974      O1978   1.372       .  S
O1976      H1980   0.992   1_655  S
O1978      H1979   0.991       .  S
C1981      C1982   1.404       .  A
C1981      C1986   1.404       .  A
C1982      C1983   1.396       .  A
C1982      H1987   1.083       .  S
C1983      C1984   1.405       .  A
C1983      O1988   1.372       .  S
C1984      C1985   1.407       .  A
C1985      C1986   1.400       .  A
C1985      H1989   1.083   1_655  S
C1986      O1990   1.371       .  S
O1988      H1992   0.992       .  S
O1990      H1991   0.991       .  S
C1993      C1994   1.403       .  A
C1993      C1998   1.405       .  A
C1994      C1995   1.401   1_565  A
C1994      H1999   1.084       .  S
C1995      C1996   1.410       .  A
C1995      O2000   1.371       .  S
C1996      C1997   1.408   1_545  A
C1997      C1998   1.400       .  A
C1997      H2001   1.084       .  S
C1998      O2002   1.373       .  S
O2000      H2004   0.991       .  S
O2002      H2003   0.992       .  S
C2005      C2006   1.405       .  A
C2005      C2010   1.408       .  A
C2006      C2007   1.404       .  A
C2006      H2011   1.084       .  S
C2007      C2008   1.412       .  A
C2007      O2012   1.372       .  S
C2008      C2009   1.405       .  A
C2009      C2010   1.402       .  A
C2009      H2013   1.083       .  S
C2010      O2014   1.372       .  S
O2012      H2016   0.991       .  S
O2014      H2015   0.991       .  S
C2017      C2018   1.415       .  A
C2017      C2022   1.404       .  A
C2018      C2019   1.405       .  A
C2018      H2023   1.081       .  S
C2019      C2020   1.405       .  A
C2019      O2024   1.371       .  S
C2020      C2021   1.416       .  A
C2021      C2022   1.405       .  A
C2021      H2025   1.081       .  S
C2022      O2026   1.371       .  S
O2024      H2028   0.992       .  S
O2026      H2027   0.991       .  S
C2029      C2030   1.401       .  A
C2029      C2034   1.415       .  A
C2030      C2031   1.400       .  A
C2030      H2035   1.084       .  S
C2031      C2032   1.418       .  A
C2031      O2036   1.372       .  S
C2032      C2033   1.404       .  A
C2033      C2034   1.406       .  A
C2033      H2037   1.083       .  S
C2034      O2038   1.372       .  S
O2036      H2040   0.992       .  S
O2038      H2039   0.991       .  S
C2041      C2042   1.396       .  A
C2041      C2046   1.406       .  A
C2042      C2043   1.391       .  A
C2042      H2047   1.085       .  S
C2043      C2044   1.416       .  A
C2043      O2048   1.372       .  S
C2044      C2045   1.402       .  A
C2045      C2046   1.400       .  A
C2045      H2049   1.083       .  S
C2046      O2050   1.368       .  S
O2048      H2052   0.991       .  S
O2050      H2051   0.990       .  S
C2053      C2054   1.407       .  A
C2053      C2058   1.414       .  A
C2054      C2055   1.399       .  A
C2054      H2059   1.084       .  S
C2055      C2056   1.412       .  A
C2055      O2060   1.373       .  S
C2056      C2057   1.404       .  A
C2057      C2058   1.407       .  A
C2057      H2061   1.082       .  S
C2058      O2062   1.373       .  S
O2060      H2064   0.992       .  S
O2062      H2063   0.992       .  S
C2065      C2066   1.406       .  A
C2065      C2070   1.414       .  A
C2066      C2067   1.403       .  A
C2066      H2071   1.084       .  S
C2067      C2068   1.410       .  A
C2067      O2072   1.373       .  S
C2068      C2069   1.402       .  A
C2069      C2070   1.402       .  A
C2069      H2073   1.084       .  S
C2070      O2074   1.371       .  S
O2072      H2076   0.992       .  S
O2074      H2075   0.991       .  S
C2077      C2078   1.405       .  A
C2077      C2082   1.409       .  A
C2078      C2079   1.403       .  A
C2078      H2083   1.084       .  S
C2079      C2080   1.408       .  A
C2079      O2084   1.373       .  S
C2080      C2081   1.405       .  A
C2081      C2082   1.403       .  A
C2081      H2085   1.084       .  S
C2082      O2086   1.371       .  S
O2084      H2088   0.992       .  S
O2086      H2087   0.991       .  S
