geometry optimzed in LAMMPS
_audit_creation_date              2020-12-01 
_audit_creation_method            'lammps2cif' 
_symmetry_space_group_name_H-M    'P1' 
_symmetry_Int_Tables_number       1 
_symmetry_cell_setting            triclinic 
loop_ 
_symmetry_equiv_pos_as_xyz 
  x,y,z 
_cell_length_a                    50.55438879 
_cell_length_b                    50.30969544821542 
_cell_length_c                    30.00383969138022 
_cell_angle_alpha                 90.19758900107784 
_cell_angle_beta                  89.8642225675412 
_cell_angle_gamma                 90.01626929850407 
loop_ 
_atom_site_label 
_atom_site_type_symbol 
_atom_site_fract_x 
_atom_site_fract_y 
_atom_site_fract_z 
_atom_site_charge 
Fe1        Fe  0.70694553  0.48146113  0.70507417     1.65800
Fe2        Fe  0.64595170  0.45762485  0.73319090     1.73200
Fe3        Fe  0.68490448  0.42294191  0.66346408     1.54400
O4          O  0.70973884  0.44163045  0.61837547    -0.82100
O5          O  0.64763778  0.42021588  0.75964353    -0.80400
O6          O  0.71080489  0.48428877  0.63670715    -0.84600
O7          O  0.73664398  0.45197560  0.70934020    -0.79400
O8          O  0.65302365  0.43321980  0.62523330    -0.81200
O9          O  0.66425928  0.47071248  0.79105007    -0.83900
C10         C  0.73643429  0.42653736  0.71211862     0.96800
C11         C  0.71534109  0.46556953  0.60950405     1.04300
O12         O  0.67929965  0.45417338  0.70096264    -1.12900
O13         O  0.64045750  0.49517111  0.70963267    -0.75400
O14         O  0.68033030  0.51350098  0.70121647    -0.78800
O15         O  0.71658772  0.41247956  0.70123074    -0.79500
C16         C  0.65514729  0.51476982  0.70035580     0.95700
O17         O  0.70581649  0.48167240  0.77376134    -0.77500
O18         O  0.62405303  0.44403148  0.67889921    -0.82700
C19         C  0.64987651  0.39861023  0.73840277     0.98300
C20         C  0.62959339  0.43774696  0.63873504     1.04300
O21         O  0.66132909  0.39742286  0.70081576    -0.78300
C22         C  0.68760327  0.47747816  0.80205179     1.02600
Fe23       Fe  0.76973870  0.48447866  0.20584558     1.65800
Fe24       Fe  0.78939218  0.42423713  0.16900344     1.73200
Fe25       Fe  0.83087477  0.45992508  0.23321529     1.54400
O26         O  0.83638962  0.49749459  0.20912795    -0.82100
O27         O  0.81309034  0.39915601  0.20636036    -0.80400
O28         O  0.79675547  0.51595171  0.19967458    -0.84600
O29         O  0.77203239  0.48615480  0.27414882    -0.79400
O30         O  0.85131473  0.44585033  0.17735255    -0.81200
O31         O  0.75790202  0.41588267  0.20969310    -0.83900
C32         C  0.79015896  0.48171081  0.30239669     0.96800
C33         C  0.82190989  0.51719705  0.19974724     1.04300
O34         O  0.79675926  0.45639229  0.20307974    -1.12900
O35         O  0.76427371  0.44232611  0.12400507    -0.75400
O36         O  0.76502002  0.48561569  0.13723120    -0.78800
O37         O  0.81319940  0.47361998  0.29160192    -0.79500
C38         C  0.75925541  0.46599610  0.11252753     0.95700
O39         O  0.73908970  0.45614370  0.21304987    -0.77500
O40         O  0.82084797  0.43231817  0.12789801    -0.82700
C41         C  0.82668571  0.40063564  0.24170386     0.98300
C42         C  0.84457417  0.43796777  0.13848245     1.04300
O43         O  0.83061266  0.42258916  0.26117131    -0.78300
C44         C  0.73832378  0.43089268  0.21852712     1.02600
Fe45       Fe  0.98454689  0.20692499  0.33500356     1.65800
Fe46       Fe  0.96193321  0.14466651  0.30884000     1.73200
Fe47       Fe  0.92559598  0.18545053  0.37335859     1.54400
O48         O  0.94397826  0.21035257  0.41856316    -0.82100
O49         O  0.92510625  0.14509424  0.28000021    -0.80400
O50         O  0.98693024  0.21068648  0.40341681    -0.84600
O51         O  0.95564684  0.23746203  0.33121583    -0.79400
O52         O  0.93406895  0.15387489  0.41378275    -0.81200
O53         O  0.97579659  0.16250331  0.25093524    -0.83900
C54         C  0.93048087  0.23744174  0.32622606     0.96800
C55         C  0.96765935  0.21567168  0.42917196     1.04300
O56         O  0.95753432  0.17891328  0.33876965    -1.12900
O57         O  0.99928525  0.13985812  0.33401659    -0.75400
O58         O  0.01676924  0.18049403  0.33746719    -0.78800
O59         O  0.91638574  0.21709501  0.33402157    -0.79500
C60         C  0.01880654  0.15528188  0.33963666     0.95700
O61         O  0.98441413  0.20518253  0.26687238    -0.77500
O62         O  0.94751557  0.12354153  0.36378392    -0.82700
C63         C  0.90294619  0.14890998  0.29853550     0.98300
C64         C  0.93950669  0.13010446  0.40268036     1.04300
O65         O  0.90087726  0.16179352  0.33477525    -0.78300
C66         C  0.98160652  0.18615234  0.23944031     1.02600
Fe67       Fe  0.98059020  0.26769723  0.83760624     1.65800
Fe68       Fe  0.92371033  0.29161669  0.88086727     1.73200
Fe69       Fe  0.95793427  0.32937804  0.80913384     1.54400
O70         O  0.99602226  0.33395197  0.83030647    -0.82100
O71         O  0.89837994  0.31569500  0.84487162    -0.80400
O72         O  0.01311972  0.29340242  0.83889261    -0.84600
O73         O  0.97984697  0.26817043  0.76934020    -0.79400
O74         O  0.94602513  0.35216640  0.86399404    -0.81200
O75         O  0.91177880  0.25978775  0.84385711    -0.83900
C76         C  0.97590237  0.28623040  0.74077571     0.96800
C77         C  0.01522702  0.31860790  0.83861443     1.04300
O78         O  0.95423721  0.29622234  0.84203512    -1.12900
O79         O  0.94225774  0.26641651  0.92484264    -0.75400
O80         O  0.98448194  0.26447090  0.90575086    -0.78800
O81         O  0.96938610  0.30990720  0.75106602    -0.79500
C82         C  0.96595811  0.26015002  0.93313263     0.95700
O83         O  0.95052691  0.23865527  0.83555090    -0.77500
O84         O  0.93558240  0.32353537  0.91835029    -0.82700
C85         C  0.89896422  0.32691438  0.80717329     0.98300
C86         C  0.94025334  0.34691497  0.90445621     1.04300
O87         O  0.92005858  0.32877738  0.78472736    -0.78300
C88         C  0.92521130  0.23931646  0.83356514     1.02600
Fe89       Fe  0.70972605  0.99026192  0.21071548     1.65800
Fe90       Fe  0.68820286  0.04959327  0.17306149     1.73200
Fe91       Fe  0.64822431  0.01367554  0.23955147     1.54400
O92         O  0.64297862  0.97600179  0.21545701    -0.82100
O93         O  0.66500814  0.07459101  0.21151437    -0.80400
O94         O  0.68303507  0.95822015  0.20598676    -0.84600
O95         O  0.70818341  0.98917038  0.27949292    -0.79400
O96         O  0.62665875  0.02758203  0.18479516    -0.81200
O97         O  0.72001048  0.05910661  0.21153888    -0.83900
C98         C  0.68989801  0.99271841  0.30806862     0.96800
C99         C  0.65786273  0.95651310  0.20635227     1.04300
O100        O  0.68199928  0.01766190  0.20814310    -1.12900
O101        O  0.71289255  0.03154217  0.12722572    -0.75400
O102        O  0.71422714  0.98847856  0.14186912    -0.78800
O103        O  0.66661682  0.00007101  0.29733776    -0.79500
C104        C  0.71917403  0.00800754  0.11655728     0.95700
O105        O  0.73984197  0.01939855  0.21576320    -0.77500
O106        O  0.65634322  0.04066460  0.13373632    -0.82700
C107        C  0.65216933  0.07295535  0.24763094     0.98300
C108        C  0.63276270  0.03534747  0.14558838     1.04300
O109        O  0.64857197  0.05108110  0.26731724    -0.78300
C110        C  0.74013357  0.04480169  0.21940180     1.02600
Fe111      Fe  0.77204371  0.98952993  0.71325884     1.65800
Fe112      Fe  0.83359745  0.01466499  0.73507245     1.73200
Fe113      Fe  0.79134746  0.04830544  0.66934158     1.54400
O114        O  0.76660910  0.02806908  0.62585063    -0.82100
O115        O  0.83277954  0.05236769  0.76084192    -0.80400
O116        O  0.76654674  0.98552777  0.64511378    -0.84600
O117        O  0.74148884  0.01789013  0.71835522    -0.79400
O118        O  0.82284407  0.03964531  0.62855287    -0.81200
O119        O  0.81710440  0.00220033  0.79517899    -0.83900
C120        C  0.74053555  0.04328916  0.72038829     0.96800
C121        C  0.76120659  0.00391308  0.61783185     1.04300
O122        O  0.79905777  0.01737672  0.70619411    -1.12900
O123        O  0.83879022  0.97670619  0.71227627    -0.75400
O124        O  0.79889808  0.95792031  0.70936568    -0.78800
O125        O  0.75981963  0.05795696  0.70897933    -0.79500
C126        C  0.82397695  0.95671111  0.70640336     0.95700
O127        O  0.77513752  0.99071544  0.78169333    -0.77500
O128        O  0.85366409  0.02797858  0.67829437    -0.82700
C129        C  0.82801325  0.07393559  0.74100476     0.98300
C130        C  0.84674923  0.03516648  0.63925289     1.04300
O131        O  0.81447979  0.07476690  0.70551485    -0.78300
C132        C  0.79411728  0.99532503  0.80828292     1.02600
Fe133      Fe  0.49570959  0.20519833  0.83733199     1.65800
Fe134      Fe  0.55364799  0.18356200  0.87973645     1.73200
Fe135      Fe  0.51723318  0.14216638  0.81571787     1.54400
O136        O  0.47928484  0.13897437  0.83912573    -0.82100
O137        O  0.57829110  0.15811261  0.84400595    -0.80400
O138        O  0.46274898  0.17997705  0.84163437    -0.84600
O139        O  0.49613520  0.20181919  0.76904298    -0.79400
O140        O  0.52986144  0.12214397  0.87290753    -0.81200
O141        O  0.56457269  0.21408279  0.83866124    -0.83900
C142        C  0.49933047  0.18240561  0.74239312     0.96800
C143        C  0.46016243  0.15488721  0.84462287     1.04300
O144        O  0.52209737  0.17689043  0.84385891    -1.12900
O145        O  0.53547081  0.21035984  0.92299594    -0.75400
O146        O  0.49286661  0.21073539  0.90538888    -0.78800
O147        O  0.50518505  0.15902133  0.75545606    -0.79500
C148        C  0.51158563  0.21588920  0.93203873     0.95700
O149        O  0.52542206  0.23433295  0.83181880    -0.77500
O150        O  0.54353665  0.15303458  0.92180636    -0.82700
C151        C  0.57646024  0.14400462  0.80903237     0.98300
C152        C  0.53775749  0.12916934  0.91161871     1.04300
O153        O  0.55465390  0.14051135  0.78934750    -0.78300
C154        C  0.55067102  0.23418543  0.82854346     1.02600
Fe155      Fe  0.49560621  0.26582670  0.33962936     1.65800
Fe156      Fe  0.51632073  0.32857419  0.31299488     1.73200
Fe157      Fe  0.55293638  0.28983601  0.38019306     1.54400
O158        O  0.53599301  0.26304165  0.42428353    -0.82100
O159        O  0.55383934  0.32995560  0.28658612    -0.80400
O160        O  0.49339923  0.26074295  0.40806701    -0.84600
O161        O  0.52622195  0.23740516  0.33331995    -0.79400
O162        O  0.54117246  0.32058429  0.42034771    -0.81200
O163        O  0.50438407  0.31018644  0.25399301    -0.83900
C164        C  0.55153252  0.23836485  0.33033786     0.96800
C165        C  0.51257989  0.25618029  0.43397903     1.04300
O166        O  0.52146542  0.29475442  0.34377045    -1.12900
O167        O  0.47841209  0.33185386  0.33611360    -0.75400
O168        O  0.46247441  0.29085977  0.34494220    -0.78800
O169        O  0.56472884  0.25900815  0.34058235    -0.79500
C170        C  0.45969730  0.31603195  0.34509072     0.95700
O171        O  0.49491806  0.26809679  0.27134413    -0.77500
O172        O  0.52837381  0.35017363  0.36892950    -0.82700
C173        C  0.57537955  0.32824058  0.30768106     0.98300
C174        C  0.53518082  0.34406741  0.40854896     1.04300
O175        O  0.57697937  0.31557522  0.34405143    -0.78300
C176        C  0.49801621  0.28654776  0.24303346     1.02600
Fe177      Fe  0.20947467  0.98354713  0.34363153     1.65800
Fe178      Fe  0.18646001  0.92653217  0.38820271     1.73200
Fe179      Fe  0.14705039  0.96146667  0.31953944     1.54400
O180        O  0.14359735  0.00021651  0.33965003    -0.82100
O181        O  0.16137435  0.90101454  0.35366660    -0.80400
O182        O  0.18429912  0.01690701  0.34483614    -0.84600
O183        O  0.20760648  0.98153908  0.27546239    -0.79400
O184        O  0.12575238  0.95029041  0.37669279    -0.81200
O185        O  0.21736098  0.91447853  0.34886530    -0.83900
C186        C  0.18915810  0.97744368  0.24764849     0.96800
C187        C  0.15923463  0.01953735  0.34565391     1.04300
O188        O  0.18088330  0.95733030  0.35009306    -1.12900
O189        O  0.21256146  0.94561808  0.43093169    -0.75400
O190        O  0.21370088  0.98810250  0.41168623    -0.78800
O191        O  0.16552178  0.97174115  0.25937562    -0.79500
C192        C  0.21851724  0.96962615  0.43896613     0.95700
O193        O  0.23862124  0.95322180  0.34104064    -0.77500
O194        O  0.15541690  0.93793724  0.42815698    -0.82700
C195        C  0.14782906  0.90196933  0.31820793     0.98300
C196        C  0.13182635  0.94307442  0.41623379     1.04300
O197        O  0.14542973  0.92315741  0.29609190    -0.78300
C198        C  0.23782361  0.92778035  0.33847431     1.02600
Fe199      Fe  0.27228599  0.98093444  0.84426789     1.65800
Fe200      Fe  0.33416610  0.95961046  0.81419126     1.73200
Fe201      Fe  0.29600129  0.92274611  0.88202740     1.54400
O202        O  0.27089140  0.94009688  0.92828475    -0.82100
O203        O  0.33390721  0.92234205  0.78548575    -0.80400
O204        O  0.26915516  0.98311868  0.91313659    -0.84600
O205        O  0.24292623  0.95079265  0.84088988    -0.79400
O206        O  0.32781195  0.93316684  0.92045557    -0.81200
O207        O  0.31506180  0.97343163  0.75737701    -0.83900
C208        C  0.24346212  0.92539732  0.83686365     0.96800
C209        C  0.26472696  0.96368267  0.93885453     1.04300
O210        O  0.30083416  0.95460045  0.84636962    -1.12900
O211        O  0.33869337  0.99725113  0.83927315    -0.75400
O212        O  0.29798698  0.01387975  0.84672443    -0.78800
O213        O  0.26416780  0.91183993  0.84437683    -0.79500
C214        C  0.32309489  0.01643383  0.84691361     0.95700
O215        O  0.27290978  0.98137774  0.77574978    -0.77500
O216        O  0.35667858  0.94570318  0.86776927    -0.82700
C217        C  0.33157312  0.90039475  0.80557074     0.98300
C218        C  0.35117704  0.93847532  0.90747623     1.04300
O219        O  0.31995451  0.89872952  0.84293544    -0.78300
C220        C  0.29132461  0.97931336  0.74706702     1.02600
Fe221      Fe  0.48183413  0.70204491  0.70752595     1.65800
Fe222      Fe  0.42147731  0.68032511  0.67641171     1.73200
Fe223      Fe  0.45960072  0.64081956  0.74027840     1.54400
O224        O  0.49646228  0.63556864  0.71376290    -0.82100
O225        O  0.39770916  0.65753765  0.71815167    -0.80400
O226        O  0.51373987  0.67559330  0.70197984    -0.84600
O227        O  0.48420153  0.70212341  0.77608584    -0.79400
O228        O  0.44509017  0.61835235  0.68661858    -0.81200
O229        O  0.41360212  0.71305528  0.71472336    -0.83900
C230        C  0.48057158  0.68452339  0.80576859     0.96800
C231        C  0.51550145  0.65037745  0.70244830     1.04300
O232        O  0.45441536  0.67429501  0.70845915    -1.12900
O233        O  0.43840768  0.70433861  0.62776598    -0.75400
O234        O  0.48173979  0.70431625  0.63869626    -0.78800
O235        O  0.47359995  0.66071242  0.79672442    -0.79500
C236        C  0.46177459  0.70941466  0.61475938     0.95700
O237        O  0.45336760  0.73254835  0.71266638    -0.77500
O238        O  0.42891813  0.64768872  0.63745290    -0.82700
C239        C  0.40082671  0.64435244  0.75367766     0.98300
C240        C  0.43596690  0.62430299  0.64822197     1.04300
O241        O  0.42332528  0.64074046  0.77069125    -0.78300
C242        C  0.42839062  0.73326771  0.71958080     1.02600
Fe243      Fe  0.48393337  0.76849421  0.21149411     1.65800
Fe244      Fe  0.45970110  0.83002249  0.23913667     1.73200
Fe245      Fe  0.42560647  0.78981391  0.17016528     1.54400
O246        O  0.44485284  0.76511049  0.12525080    -0.82100
O247        O  0.42185449  0.82942081  0.26429906    -0.80400
O248        O  0.48737195  0.76451352  0.14280598    -0.84600
O249        O  0.45508247  0.73809700  0.21466746    -0.79400
O250        O  0.43545024  0.82174593  0.13144390    -0.81200
O251        O  0.47123499  0.81141266  0.29792152    -0.83900
C252        C  0.42979912  0.73787911  0.21768944     0.96800
C253        C  0.46869680  0.75966179  0.11586446     1.04300
O254        O  0.45658207  0.79617048  0.20729428    -1.12900
O255        O  0.49782958  0.83544004  0.21787342    -0.75400
O256        O  0.51576521  0.79529681  0.20892477    -0.78800
O257        O  0.41555062  0.75784147  0.20817178    -0.79500
C258        C  0.51738304  0.82056272  0.20937240     0.95700
O259        O  0.48319404  0.76987415  0.28026741    -0.77500
O260        O  0.44763719  0.85160404  0.18318489    -0.82700
C261        C  0.40033497  0.82570872  0.24387472     0.98300
C262        C  0.44112565  0.84533104  0.14338663     1.04300
O263        O  0.39951225  0.81310839  0.20722883    -0.78300
C264        C  0.47817520  0.78794796  0.30876620     1.02600
Fe265      Fe  0.99538434  0.70462187  0.21748739     1.65800
Fe266      Fe  0.01962764  0.64245781  0.24003406     1.73200
Fe267      Fe  0.05516402  0.68554696  0.17725455     1.54400
O268        O  0.03615319  0.71021155  0.13241219    -0.82100
O269        O  0.05724866  0.64113295  0.26550989    -0.80400
O270        O  0.99343248  0.71062953  0.14945199    -0.84600
O271        O  0.02324405  0.73533840  0.22570686    -0.79400
O272        O  0.04800427  0.65373416  0.13553222    -0.81200
O273        O  0.00767298  0.65944180  0.30072114    -0.83900
C274        C  0.04841586  0.73652170  0.22927993     0.96800
C275        C  0.01233817  0.71563627  0.12300586     1.04300
O276        O  0.02331170  0.67741514  0.21184865    -1.12900
O277        O  0.98162914  0.63793145  0.21778029    -0.75400
O278        O  0.96377990  0.67806171  0.21042610    -0.78800
O279        O  0.06343055  0.71741908  0.21776884    -0.79500
C280        C  0.96218385  0.65286328  0.20921392     0.95700
O281        O  0.99470921  0.70094531  0.28566843    -0.77500
O282        O  0.03216561  0.62269254  0.18207662    -0.82700
C283        C  0.07915520  0.64707005  0.24780682     0.98300
C284        C  0.04119960  0.62990899  0.14414482     1.04300
O285        O  0.08078457  0.66251540  0.21466846    -0.78300
C286        C  0.99977775  0.68244737  0.31306739     1.02600
Fe287      Fe  0.99513297  0.76777772  0.71667689     1.65800
Fe288      Fe  0.05401433  0.78878002  0.67658354     1.73200
Fe289      Fe  0.01892930  0.82965554  0.74361543     1.54400
O290        O  0.98108282  0.83442491  0.72083123    -0.82100
O291        O  0.07939504  0.81230145  0.71426096    -0.80400
O292        O  0.96333714  0.79421073  0.71189402    -0.84600
O293        O  0.99456985  0.76999101  0.78507674    -0.79400
O294        O  0.03188867  0.85085115  0.68762439    -0.81200
O295        O  0.06360736  0.75683452  0.71530885    -0.83900
C296        C  0.99905140  0.78821733  0.81344315     0.96800
C297        C  0.96171184  0.81943096  0.71163903     1.04300
O298        O  0.02255808  0.79546797  0.71268084    -1.12900
O299        O  0.03544375  0.76363252  0.63144642    -0.75400
O300        O  0.99275551  0.76284642  0.64824329    -0.78800
O301        O  0.00652560  0.81153312  0.80257850    -0.79500
C302        C  0.01175090  0.75764855  0.62206459     0.95700
O303        O  0.02386108  0.73763771  0.72206743    -0.77500
O304        O  0.04498000  0.82068936  0.63691988    -0.82700
C305        C  0.07822732  0.82561377  0.75018645     0.98300
C306        C  0.03944441  0.84443066  0.64835004     1.04300
O307        O  0.05650510  0.82984145  0.76992811    -0.78300
C308        C  0.04912138  0.73701069  0.72495593     1.02600
Fe309      Fe  0.27248421  0.48951071  0.33479949     1.65800
Fe310      Fe  0.29484745  0.54720177  0.37859815     1.73200
Fe311      Fe  0.33439567  0.51302978  0.30842971     1.54400
O312        O  0.33894049  0.47454041  0.32913371    -0.82100
O313        O  0.31857622  0.57301240  0.34251585    -0.80400
O314        O  0.29865302  0.45723857  0.33881260    -0.84600
O315        O  0.27494330  0.48955359  0.26642002    -0.79400
O316        O  0.35603271  0.52494958  0.36487386    -0.81200
O317        O  0.26323062  0.55843558  0.34106888    -0.83900
C318        C  0.29298302  0.49405982  0.23794819     0.96800
C319        C  0.32378024  0.45521409  0.33808287     1.04300
O320        O  0.30059376  0.51639294  0.34022550    -1.12900
O321        O  0.26994928  0.52821179  0.42290051    -0.75400
O322        O  0.26678978  0.48596787  0.40314844    -0.78800
O323        O  0.31618298  0.50160233  0.24879071    -0.79500
C324        C  0.26290000  0.50456045  0.43096496     0.95700
O325        O  0.24311518  0.51932835  0.32967260    -0.77500
O326        O  0.32632688  0.53643165  0.41709043    -0.82700
C327        C  0.33098836  0.57256513  0.30577622     0.98300
C328        C  0.34984654  0.53129854  0.40487475     1.04300
O329        O  0.33430954  0.55121823  0.28415484    -0.78300
C330        C  0.24332447  0.54482487  0.32891040     1.02600
Fe331      Fe  0.20628787  0.48781074  0.83641359     1.65800
Fe332      Fe  0.14468924  0.51107222  0.80922167     1.73200
Fe333      Fe  0.18390528  0.54625536  0.87813357     1.54400
O334        O  0.20850738  0.52751773  0.92330857    -0.82100
O335        O  0.14508364  0.54866657  0.78309443    -0.80400
O336        O  0.21042454  0.48485983  0.90494930    -0.84600
O337        O  0.23597110  0.51728300  0.83309782    -0.79400
O338        O  0.15183699  0.53640205  0.91670793    -0.81200
O339        O  0.16329573  0.49845683  0.75059503    -0.83900
C340        C  0.23634903  0.54275103  0.83212705     0.96800
C341        C  0.21491962  0.50375018  0.93192803     1.04300
O342        O  0.17830462  0.51492377  0.84080968    -1.12900
O343        O  0.13997737  0.47320424  0.83202763    -0.75400
O344        O  0.18016378  0.45548288  0.83944426    -0.78800
O345        O  0.21611124  0.55677027  0.84110440    -0.79500
C346        C  0.15504542  0.45372612  0.84008634     0.95700
O347        O  0.20497240  0.48766487  0.76768568    -0.77500
O348        O  0.12258450  0.52430901  0.86444803    -0.82700
C349        C  0.14806927  0.57036279  0.80381344     0.98300
C350        C  0.12833420  0.53157247  0.90412587     1.04300
O351        O  0.16055970  0.57168944  0.84036902    -0.78300
C352        C  0.18667210  0.49152552  0.73952152     1.02600
C353        C  0.19352888  0.48963078  0.69169785    -0.01700
C354        C  0.20688072  0.46747943  0.67429975    -0.09700
C355        C  0.21633274  0.46746701  0.63025941    -0.18500
C356        C  0.21365252  0.49019992  0.60290690     0.03900
C357        C  0.19996830  0.51250581  0.62109508     0.18000
C358        C  0.18950775  0.51171431  0.66446607    -0.20000
C359        C  0.19775060  0.53601462  0.59671509    -0.21200
C360        C  0.20951426  0.53827302  0.55511382    -0.19800
C361        C  0.22321410  0.51685626  0.53625378     0.19400
C362        C  0.22492105  0.49220161  0.55906680     0.01600
C363        C  0.23814869  0.47099921  0.53708746    -0.14500
C364        C  0.24994820  0.47456791  0.49502967    -0.12200
C365        C  0.24923755  0.49940978  0.47399503     0.01100
C366        C  0.23549002  0.52024477  0.49474587    -0.24400
H367        H  0.21031990  0.45027399  0.69509017     0.09100
H368        H  0.22660851  0.44983787  0.61910084     0.12700
H369        H  0.17964511  0.52908114  0.67819335     0.11400
H370        H  0.18746390  0.55308059  0.61047487     0.12600
H371        H  0.20800397  0.55703803  0.53762370     0.11600
H372        H  0.23966235  0.45145741  0.55166127     0.08700
H373        H  0.26019413  0.45806614  0.47945647     0.12000
H374        H  0.23427992  0.53940962  0.47835229     0.13800
C375        C  0.22874542  0.49861816  0.97438926    -0.01700
C376        C  0.22234300  0.47675705  0.00097265    -0.09700
C377        C  0.23424832  0.47340099  0.04273018    -0.18500
C378        C  0.25335214  0.49173587  0.05877031     0.03900
C379        C  0.26078229  0.51299788  0.03029964     0.18000
C380        C  0.24823304  0.51642517  0.98901043    -0.20000
C381        C  0.28038581  0.53102510  0.04346322    -0.21200
C382        C  0.29224617  0.52897806  0.08507387    -0.19800
C383        C  0.28440919  0.50919244  0.11499443     0.19400
C384        C  0.26495513  0.49015352  0.10221750     0.01600
C385        C  0.25717205  0.47110567  0.13420860    -0.14500
C386        C  0.26722911  0.47185105  0.17754313    -0.12200
C387        C  0.28587169  0.49103232  0.19029338     0.01100
C388        C  0.29505580  0.50910061  0.15836754    -0.24400
H389        H  0.20747975  0.46265876  0.99003231     0.09100
H390        H  0.22805586  0.45637700  0.06165484     0.12700
H391        H  0.25362490  0.53309696  0.96805926     0.11400
H392        H  0.28637539  0.54705124  0.02160306     0.12600
H393        H  0.30708174  0.54349225  0.09443895     0.11600
H394        H  0.24260062  0.45607788  0.12735833     0.08700
H395        H  0.25989649  0.45762589  0.20164791     0.12000
H396        H  0.30922349  0.52419918  0.16811260     0.13800
C397        C  0.06249323  0.71210041  0.73840600    -0.01700
C398        C  0.05013705  0.68741729  0.73260190    -0.09700
C399        C  0.06378359  0.66379341  0.74110360    -0.18500
C400        C  0.09028018  0.66415738  0.75629885     0.03900
C401        C  0.10220104  0.68928973  0.76437228     0.18000
C402        C  0.08846630  0.71282829  0.75477780    -0.20000
C403        C  0.12776882  0.69081208  0.78202764    -0.21200
C404        C  0.14165410  0.66784244  0.79261675    -0.19800
C405        C  0.13071566  0.64277224  0.78425885     0.19400
C406        C  0.10521907  0.64056058  0.76459314     0.01600
C407        C  0.09591971  0.61483619  0.75381795    -0.14500
C408        C  0.11067930  0.59226801  0.76440108    -0.12200
C409        C  0.13493649  0.59450228  0.78662109     0.01100
C410        C  0.14502366  0.61985635  0.79588048    -0.24400
H411        H  0.03005041  0.68631196  0.72024288     0.09100
H412        H  0.05300033  0.64556368  0.73589695     0.12700
H413        H  0.09807964  0.73184719  0.76012219     0.11400
H414        H  0.13693234  0.70992769  0.78839785     0.12600
H415        H  0.16117948  0.66970333  0.80714079     0.11600
H416        H  0.07734443  0.61152870  0.73711846     0.08700
H417        H  0.10250219  0.57287299  0.75679306     0.12000
H418        H  0.16395976  0.62173336  0.81251213     0.13800
C419        C  0.10345456  0.63400913  0.26419218    -0.01700
C420        C  0.12807188  0.64653750  0.26065184    -0.09700
C421        C  0.15134132  0.63294047  0.27121048    -0.18500
C422        C  0.15075194  0.60594890  0.28457117     0.03900
C423        C  0.12566409  0.59335770  0.28798971     0.18000
C424        C  0.10239507  0.60754568  0.27865651    -0.20000
C425        C  0.12394580  0.56647622  0.29960185    -0.21200
C426        C  0.14665462  0.55170864  0.30787625    -0.19800
C427        C  0.17167208  0.56352382  0.30541554     0.19400
C428        C  0.17407824  0.59088055  0.29401924     0.01600
C429        C  0.19973148  0.60196612  0.29281541    -0.14500
C430        C  0.22190252  0.58670850  0.30306698    -0.12200
C431        C  0.21952006  0.55979135  0.31456268     0.01100
C432        C  0.19429298  0.54822289  0.31501265    -0.24400
H433        H  0.12935072  0.66689146  0.24916070     0.09100
H434        H  0.16948961  0.64393431  0.26745678     0.12700
H435        H  0.08343167  0.59751824  0.28051398     0.11400
H436        H  0.10488021  0.55671778  0.30192695     0.12600
H437        H  0.14461089  0.53091794  0.31658528     0.11600
H438        H  0.20335454  0.62250346  0.28480250     0.08700
H439        H  0.24112218  0.59623050  0.30232626     0.12000
H440        H  0.19215187  0.52751424  0.32423981     0.13800
C441        C  0.04541121  0.60971023  0.10890969    -0.01700
C442        C  0.05569082  0.58470384  0.11962928    -0.09700
C443        C  0.06485715  0.56757978  0.08613828    -0.18500
C444        C  0.06381330  0.57501114  0.04070542     0.03900
C445        C  0.05076542  0.59918066  0.02996114     0.18000
C446        C  0.04208393  0.61638848  0.06396318    -0.20000
C447        C  0.04761763  0.60665782  0.98540536    -0.21200
C448        C  0.05866381  0.59151501  0.95128561    -0.19800
C449        C  0.07391526  0.56907280  0.96101839     0.19400
C450        C  0.07640394  0.56019227  0.00581796     0.01600
C451        C  0.09326703  0.53830117  0.01405625    -0.14500
C452        C  0.10881352  0.52744303  0.97995989    -0.12200
C453        C  0.10705889  0.53711716  0.93641356     0.01100
C454        C  0.08851462  0.55687549  0.92666572    -0.24400
H455        H  0.05809966  0.57900189  0.15417100     0.09100
H456        H  0.07318812  0.54894814  0.09683455     0.12700
H457        H  0.03359279  0.63550697  0.05548203     0.11400
H458        H  0.03720250  0.62477075  0.97695360     0.12600
H459        H  0.05656246  0.59830540  0.91722219     0.11600
H460        H  0.09633893  0.53044079  0.04701308     0.08700
H461        H  0.12325699  0.51230780  0.98804299     0.12000
H462        H  0.08758221  0.56475538  0.89307628     0.13800
C463        C  0.00678076  0.74348430  0.57972039    -0.01700
C464        C  0.02211557  0.72123106  0.56878262    -0.09700
C465        C  0.01931110  0.70849541  0.52761739    -0.18500
C466        C  0.00148896  0.71817809  0.49525647     0.03900
C467        C  0.98586465  0.74078140  0.50670686     0.18000
C468        C  0.98820252  0.75280528  0.54902064    -0.20000
C469        C  0.96869187  0.75181643  0.47529950    -0.21200
C470        C  0.96732939  0.74150769  0.43229152    -0.19800
C471        C  0.98267870  0.71953041  0.41980444     0.19400
C472        C  0.99938815  0.70699453  0.45140699     0.01600
C473        C  0.01367501  0.68423184  0.43727178    -0.14500
C474        C  0.01263793  0.67535684  0.39299922    -0.12200
C475        C  0.99743316  0.68885398  0.36133346     0.01100
C476        C  0.98196764  0.71051596  0.37542282    -0.24400
H477        H  0.03652482  0.71372873  0.59226505     0.09100
H478        H  0.03201282  0.69162411  0.52158663     0.12700
H479        H  0.97650901  0.77023244  0.55727768     0.11400
H480        H  0.95675027  0.76902369  0.48368199     0.12600
H481        H  0.95438029  0.75101846  0.40841821     0.11600
H482        H  0.02616046  0.67306204  0.45952587     0.08700
H483        H  0.02469208  0.65854128  0.38312423     0.12000
H484        H  0.96980783  0.72092421  0.35137883     0.13800
C485        C  0.00696277  0.72847263  0.07980681    -0.01700
C486        C  0.98517841  0.72102858  0.05396961    -0.09700
C487        C  0.98148554  0.73178183  0.01145197    -0.18500
C488        C  0.99938198  0.75076896  0.99387137     0.03900
C489        C  0.02059308  0.75926719  0.02149508     0.18000
C490        C  0.02441098  0.74779598  0.06356202    -0.20000
C491        C  0.03809597  0.77894970  0.00682341    -0.21200
C492        C  0.03538074  0.79006312  0.96475410    -0.19800
C493        C  0.01554623  0.78124775  0.93581683     0.19400
C494        C  0.99727819  0.76139764  0.94982701     0.01600
C495        C  0.97842486  0.75233008  0.91850183    -0.14500
C496        C  0.97841983  0.76186989  0.87480259    -0.12200
C497        C  0.99661215  0.78123495  0.86113996     0.01100
C498        C  0.01462782  0.79138747  0.89222435    -0.24400
H499        H  0.97138440  0.70622630  0.06614640     0.09100
H500        H  0.96448834  0.72490773  0.99325635     0.12700
H501        H  0.04104276  0.75395526  0.08387865     0.11400
H502        H  0.05411104  0.78570934  0.02796676     0.12600
H503        H  0.04938223  0.80512797  0.95430361     0.11600
H504        H  0.96415918  0.73715073  0.92618447     0.08700
H505        H  0.96439219  0.75364235  0.85122491     0.12000
H506        H  0.02908181  0.80599448  0.88165394     0.13800
C507        C  0.41588792  0.71363025  0.23224150    -0.01700
C508        C  0.39382993  0.71603917  0.26019306    -0.09700
C509        C  0.37886118  0.69385950  0.27184711    -0.18500
C510        C  0.38520981  0.66834191  0.25510215     0.03900
C511        C  0.40735888  0.66604657  0.22594067     0.18000
C512        C  0.42274381  0.68854505  0.21543121    -0.20000
C513        C  0.41374779  0.64139476  0.20700235    -0.21200
C514        C  0.39883890  0.61888521  0.21683277    -0.19800
C515        C  0.37744368  0.62033672  0.24649202     0.19400
C516        C  0.37033965  0.64508556  0.26614209     0.01600
C517        C  0.34898842  0.64536322  0.29670863    -0.14500
C518        C  0.33577288  0.62200217  0.30812711    -0.12200
C519        C  0.34302214  0.59757036  0.28920122     0.01100
C520        C  0.36356488  0.59701209  0.25761511    -0.24400
H521        H  0.38804205  0.73534055  0.27306523     0.09100
H522        H  0.36217320  0.69750131  0.29334696     0.12700
H523        H  0.43943906  0.68673103  0.19286319     0.11400
H524        H  0.43038124  0.63950954  0.18435521     0.12600
H525        H  0.40436576  0.60009895  0.20168270     0.11600
H526        H  0.34242944  0.66315973  0.31338744     0.08700
H527        H  0.32004180  0.62305114  0.33265222     0.12000
H528        H  0.36957099  0.57819907  0.24306958     0.13800
C529        C  0.37782807  0.63079973  0.77376029    -0.01700
C530        C  0.38050986  0.60454597  0.78852349    -0.09700
C531        C  0.35835399  0.58957968  0.80051232    -0.18500
C532        C  0.33268704  0.60064083  0.79868149     0.03900
C533        C  0.33038176  0.62798028  0.78716982     0.18000
C534        C  0.35278124  0.64259627  0.77402420    -0.20000
C535        C  0.30564172  0.64039343  0.78777244    -0.21200
C536        C  0.28297288  0.62604928  0.79812157    -0.19800
C537        C  0.28438911  0.59876728  0.80683020     0.19400
C538        C  0.30921997  0.58557187  0.80720429     0.01600
C539        C  0.30931297  0.55777450  0.81466066    -0.14500
C540        C  0.28572212  0.54379062  0.82163887    -0.12200
C541        C  0.26133409  0.55701171  0.82184168     0.01100
C542        C  0.26095535  0.58456710  0.81453502    -0.24400
H543        H  0.39975789  0.59507260  0.78867401     0.09100
H544        H  0.36191596  0.56936600  0.81065868     0.12700
H545        H  0.35069390  0.66303500  0.76321888     0.11400
H546        H  0.30377709  0.66130549  0.77982048     0.12600
H547        H  0.26408627  0.63623864  0.79811822     0.11600
H548        H  0.32725656  0.54621672  0.81460427     0.08700
H549        H  0.28664697  0.52257711  0.82748097     0.12000
H550        H  0.24225212  0.59511141  0.81447175     0.13800
C551        C  0.37062069  0.53517858  0.43843228    -0.01700
C552        C  0.36679522  0.52578313  0.48180722    -0.09700
C553        C  0.38206151  0.53547154  0.51701279    -0.18500
C554        C  0.40090463  0.55582112  0.50997023     0.03900
C555        C  0.40555894  0.56422661  0.46534103     0.18000
C556        C  0.39099388  0.55325691  0.42998361    -0.20000
C557        C  0.42309772  0.58508189  0.45659952    -0.21200
C558        C  0.43457416  0.59918417  0.49138371    -0.19800
C559        C  0.42929339  0.59231261  0.53564640     0.19400
C560        C  0.41356907  0.56967768  0.54569567     0.01600
C561        C  0.40997748  0.56301038  0.59116959    -0.14500
C562        C  0.41925210  0.57974571  0.62504441    -0.12200
C563        C  0.43230217  0.60340566  0.61443814     0.01100
C564        C  0.43832705  0.60893548  0.56991238    -0.24400
H565        H  0.35095532  0.51189148  0.48882212     0.09100
H566        H  0.37737198  0.52795792  0.54971948     0.12700
H567        H  0.39356869  0.56092461  0.39647092     0.11400
H568        H  0.42682242  0.59149166  0.42269439     0.12600
H569        H  0.44692750  0.61617261  0.48362454     0.11600
H570        H  0.39934292  0.54549319  0.60155133     0.08700
H571        H  0.41468050  0.57507548  0.65943778     0.12000
H572        H  0.44887633  0.62708883  0.56182163     0.13800
C573        C  0.46533511  0.72263537  0.57111725    -0.01700
C574        C  0.44616208  0.74061292  0.55622451    -0.09700
C575        C  0.44901000  0.75366836  0.51551779    -0.18500
C576        C  0.47100807  0.74866168  0.48755697     0.03900
C577        C  0.49008849  0.72983477  0.50219138     0.18000
C578        C  0.48746661  0.71755970  0.54414784    -0.20000
C579        C  0.51127765  0.72290066  0.47434929    -0.21200
C580        C  0.51338049  0.73349969  0.43165665    -0.19800
C581        C  0.49494672  0.75212071  0.41636889     0.19400
C582        C  0.47416966  0.76084933  0.44485685     0.01600
C583        C  0.45731769  0.78120836  0.42913261    -0.14500
C584        C  0.45983109  0.79104472  0.38581501    -0.12200
C585        C  0.47890322  0.78074963  0.35658417     0.01100
C586        C  0.49679624  0.76167827  0.37240455    -0.24400
H587        H  0.42889252  0.74486445  0.57650515     0.09100
H588        H  0.43329108  0.76696918  0.50629630     0.12700
H589        H  0.50219647  0.70340007  0.55519125     0.11400
H590        H  0.52589003  0.70855698  0.48514328     0.12600
H591        H  0.52951215  0.72703739  0.41040406     0.11600
H592        H  0.44197365  0.78985176  0.44944758     0.08700
H593        H  0.44591808  0.80593058  0.37445924     0.12000
H594        H  0.51191947  0.75396997  0.35020851     0.13800
C595        C  0.48290636  0.69274603  0.85302228    -0.01700
C596        C  0.50170577  0.71162792  0.86638216    -0.09700
C597        C  0.50183119  0.72164367  0.91003932    -0.18500
C598        C  0.48244399  0.71367490  0.94140680     0.03900
C599        C  0.46323837  0.69475296  0.92726394     0.18000
C600        C  0.46405902  0.68406852  0.88395518    -0.20000
C601        C  0.44270282  0.68723213  0.95586918    -0.21200
C602        C  0.44041046  0.69848984  0.99799868    -0.19800
C603        C  0.45900970  0.71701571  0.01310089     0.19400
C604        C  0.48075459  0.72439847  0.98567518     0.01600
C605        C  0.49961326  0.74227135  0.00383091    -0.14500
C606        C  0.49635195  0.75304030  0.04673977    -0.12200
C607        C  0.47405783  0.74670450  0.07237556     0.01100
C608        C  0.45571324  0.72841769  0.05547232    -0.24400
H609        H  0.51622478  0.71889857  0.84275249     0.09100
H610        H  0.51670280  0.73625915  0.91780744     0.12700
H611        H  0.44900430  0.67003428  0.87346604     0.11400
H612        H  0.42792064  0.67297561  0.94519337     0.12600
H613        H  0.42391968  0.69266753  0.01893841     0.11600
H614        H  0.51703214  0.74821690  0.98570502     0.08700
H615        H  0.51086952  0.76700441  0.05933609     0.12000
H616        H  0.43867619  0.72303496  0.07552801     0.13800
C617        C  0.21925150  0.91052434  0.82395616    -0.01700
C618        C  0.22172607  0.88577476  0.80272033    -0.09700
C619        C  0.19951934  0.87053245  0.79224230    -0.18500
C620        C  0.17376596  0.87936181  0.80314385     0.03900
C621        C  0.17128548  0.90415539  0.82579408     0.18000
C622        C  0.19388322  0.91963866  0.83535312    -0.20000
C623        C  0.14627179  0.91322484  0.83900518    -0.21200
C624        C  0.12363754  0.89846697  0.82954367    -0.19800
C625        C  0.12532666  0.87447881  0.80584593     0.19400
C626        C  0.15042465  0.86456455  0.79224657     0.01600
C627        C  0.15096686  0.84065311  0.76725152    -0.14500
C628        C  0.12761793  0.82768042  0.75507518    -0.12200
C629        C  0.10289594  0.83765718  0.76802652     0.01100
C630        C  0.10197391  0.86078330  0.79437767    -0.24400
H631        H  0.24108135  0.87808424  0.79402283     0.09100
H632        H  0.20325635  0.85172456  0.77606781     0.12700
H633        H  0.19177848  0.93845276  0.85276207     0.11400
H634        H  0.14418208  0.93191585  0.85673372     0.12600
H635        H  0.10458496  0.90616614  0.84007134     0.11600
H636        H  0.16910879  0.83184334  0.75532451     0.08700
H637        H  0.12892446  0.80991665  0.73469928     0.12000
H638        H  0.08294017  0.86892016  0.80413566     0.13800
C639        C  0.34391836  0.87607290  0.78673489    -0.01700
C640        C  0.36406468  0.87768749  0.75464680    -0.09700
C641        C  0.37836975  0.85504026  0.74197338    -0.18500
C642        C  0.37285176  0.82992983  0.76103491     0.03900
C643        C  0.35139849  0.82825203  0.79163460     0.18000
C644        C  0.33736998  0.85112407  0.80423134    -0.20000
C645        C  0.34428534  0.80381428  0.81023352    -0.21200
C646        C  0.35806846  0.78086163  0.79922674    -0.19800
C647        C  0.37970772  0.78187374  0.77017033     0.19400
C648        C  0.38775056  0.80643919  0.75108593     0.01600
C649        C  0.41057197  0.80636979  0.72359844    -0.14500
C650        C  0.42437245  0.78278844  0.71477762    -0.12200
C651        C  0.41563616  0.75858251  0.73239083     0.01100
C652        C  0.39336028  0.75833314  0.76016642    -0.24400
H653        H  0.36947276  0.89669731  0.74044066     0.09100
H654        H  0.39374684  0.85782775  0.71746881     0.12700
H655        H  0.32159687  0.84953603  0.82864411     0.11400
H656        H  0.32788790  0.80242437  0.83345340     0.12600
H657        H  0.35194755  0.76221032  0.81400552     0.11600
H658        H  0.41830683  0.82422962  0.70869037     0.08700
H659        H  0.44148692  0.78336075  0.69300249     0.12000
H660        H  0.38666284  0.73965627  0.77421921     0.13800
C661        C  0.37266819  0.93416332  0.93947701    -0.01700
C662        C  0.39475221  0.91910982  0.92708761    -0.09700
C663        C  0.41152896  0.90868626  0.95956556    -0.18500
C664        C  0.40647042  0.91311110  0.00543246     0.03900
C665        C  0.38583752  0.93103587  0.01713305     0.18000
C666        C  0.36906988  0.94118798  0.98420717    -0.20000
C667        C  0.38089043  0.93728231  0.06183464    -0.21200
C668        C  0.39460991  0.92446826  0.09554088    -0.19800
C669        C  0.41301434  0.90460983  0.08524789     0.19400
C670        C  0.41975675  0.89907300  0.04005267     0.01600
C671        C  0.43761561  0.87802353  0.03144637    -0.14500
C672        C  0.44614397  0.86154488  0.06583108    -0.12200
C673        C  0.43812816  0.86625382  0.10979924     0.01100
C674        C  0.42292806  0.88870629  0.11970299    -0.24400
H675        H  0.39794863  0.91375326  0.89247170     0.09100
H676        H  0.42763475  0.89647427  0.94787836     0.12700
H677        H  0.35217860  0.95327500  0.99362821     0.11400
H678        H  0.36555686  0.95137514  0.07084409     0.12600
H679        H  0.38958115  0.92894099  0.12989268     0.11600
H680        H  0.44385482  0.87262856  0.99828112     0.08700
H681        H  0.45805509  0.84426313  0.05778425     0.12000
H682        H  0.41650026  0.89213799  0.15376388     0.13800
C683        C  0.06102431  0.76118363  0.24642542    -0.01700
C684        C  0.04803344  0.78575543  0.24428719    -0.09700
C685        C  0.06102641  0.80926416  0.25658943    -0.18500
C686        C  0.08752191  0.80886717  0.27188394     0.03900
C687        C  0.09997428  0.78370818  0.27649302     0.18000
C688        C  0.08685273  0.76035994  0.26337637    -0.20000
C689        C  0.12562973  0.78194705  0.29365424    -0.21200
C690        C  0.13942669  0.80470649  0.30590857    -0.19800
C691        C  0.12822747  0.82986973  0.30011986     0.19400
C692        C  0.10220731  0.83239477  0.28255828     0.01600
C693        C  0.09236869  0.85835226  0.27545154    -0.14500
C694        C  0.10769937  0.88071688  0.28553390    -0.12200
C695        C  0.13303822  0.87805936  0.30385343     0.01100
C696        C  0.14307638  0.85255444  0.31142069    -0.24400
H697        H  0.02797364  0.78693689  0.23180585     0.09100
H698        H  0.04987273  0.82740078  0.25372327     0.12700
H699        H  0.09692478  0.74142244  0.26610628     0.11400
H700        H  0.13512433  0.76279754  0.29762029     0.12600
H701        H  0.15922688  0.80262463  0.31918744     0.11600
H702        H  0.07308905  0.86200016  0.26161259     0.08700
H703        H  0.09936685  0.90028290  0.28006105     0.12000
H704        H  0.16264691  0.85037837  0.32561781     0.13800
C705        C  0.11061868  0.93768752  0.44876240    -0.01700
C706        C  0.08874757  0.92255131  0.43561077    -0.09700
C707        C  0.07233257  0.91072973  0.46739098    -0.18500
C708        C  0.07733706  0.91388919  0.51348140     0.03900
C709        C  0.09773314  0.93177268  0.52641828     0.18000
C710        C  0.11437733  0.94315415  0.49411517    -0.20000
C711        C  0.10234378  0.93698211  0.57158344    -0.21200
C712        C  0.08825144  0.92351416  0.60433543    -0.19800
C713        C  0.06993669  0.90382811  0.59268241     0.19400
C714        C  0.06391730  0.89893855  0.54706581     0.01600
C715        C  0.04642538  0.87780353  0.53698330    -0.14500
C716        C  0.03709001  0.86099772  0.57045768    -0.12200
C717        C  0.04392171  0.86538178  0.61503089     0.01100
C718        C  0.05919761  0.88761207  0.62620551    -0.24400
H719        H  0.08546243  0.91819424  0.40066455     0.09100
H720        H  0.05636303  0.89861957  0.45489262     0.12700
H721        H  0.13114388  0.95515956  0.50434431     0.11400
H722        H  0.11748932  0.95100188  0.58165748     0.12600
H723        H  0.09282323  0.92744978  0.63902928     0.11600
H724        H  0.04100849  0.87265234  0.50329283     0.08700
H725        H  0.02532227  0.84383164  0.56130832     0.12000
H726        H  0.06486332  0.89074852  0.66070239     0.13800
C727        C  0.25119691  0.96785471  0.98194916    -0.01700
C728        C  0.23076141  0.95060308  0.99440390    -0.09700
C729        C  0.21837865  0.95301343  0.03585269    -0.18500
C730        C  0.22661632  0.97247516  0.06695034     0.03900
C731        C  0.24778991  0.98961683  0.05443003     0.18000
C732        C  0.25938640  0.98762464  0.01178989    -0.20000
C733        C  0.25777266  0.00810293  0.08501483    -0.21200
C734        C  0.24763939  0.00952267  0.12810467    -0.19800
C735        C  0.22668208  0.99310534  0.14129098     0.19400
C736        C  0.21527373  0.97491711  0.11053384     0.01600
C737        C  0.19317960  0.95985566  0.12497317    -0.14500
C738        C  0.18379929  0.96177586  0.16881304    -0.12200
C739        C  0.19623327  0.97849305  0.19971480     0.01100
C740        C  0.21736904  0.99445372  0.18540304    -0.24400
H741        H  0.22429857  0.93506623  0.97178142     0.09100
H742        H  0.20301902  0.93884604  0.04308066     0.12700
H743        H  0.27555295  0.00065161  0.00254254     0.11400
H744        H  0.27397232  0.02110616  0.07590208     0.12600
H745        H  0.25629050  0.02358259  0.15133394     0.11600
H746        H  0.18279555  0.94636966  0.10323951     0.08700
H747        H  0.16741897  0.94929619  0.17903937     0.12000
H748        H  0.22689560  0.00773412  0.20896236     0.13800
C749        C  0.23234001  0.97552660  0.48088933    -0.01700
C750        C  0.25564843  0.96184751  0.49065314    -0.09700
C751        C  0.26795091  0.96486738  0.53189406    -0.18500
C752        C  0.25672076  0.98119354  0.56541469     0.03900
C753        C  0.23300712  0.99515238  0.55517909     0.18000
C754        C  0.22140494  0.99271489  0.51272770    -0.20000
C755        C  0.22042552  0.01047461  0.58798480    -0.21200
C756        C  0.23017801  0.01122708  0.63131424    -0.19800
C757        C  0.25317438  0.99729132  0.64258319     0.19400
C758        C  0.26739855  0.98300312  0.60937212     0.01600
C759        C  0.29134156  0.97055899  0.62193975    -0.14500
C760        C  0.29966578  0.97057204  0.66627321    -0.12200
C761        C  0.28446996  0.98285986  0.69950459     0.01100
C762        C  0.26163218  0.99688168  0.68718024    -0.24400
H763        H  0.26423086  0.94839043  0.46629375     0.09100
H764        H  0.28553167  0.95331239  0.53706218     0.12700
H765        H  0.20309551  0.00296508  0.50531059     0.11400
H766        H  0.20239339  0.02118461  0.58049150     0.12600
H767        H  0.21944479  0.02248389  0.65633428     0.11600
H768        H  0.30390891  0.96042972  0.59849032     0.08700
H769        H  0.31758304  0.95993023  0.67478721     0.12000
H770        H  0.25006136  0.00698823  0.71251571     0.13800
C771        C  0.37569680  0.83777271  0.26197656    -0.01700
C772        C  0.35079620  0.82900289  0.24772071    -0.09700
C773        C  0.32771690  0.84233594  0.26073791    -0.18500
C774        C  0.32882663  0.86543075  0.28784284     0.03900
C775        C  0.35410772  0.87398302  0.30278132     0.18000
C776        C  0.37706297  0.85991587  0.29049785    -0.20000
C777        C  0.35646696  0.89705060  0.32872340    -0.21200
C778        C  0.33432677  0.91227427  0.33926177    -0.19800
C779        C  0.30913568  0.90457501  0.32488718     0.19400
C780        C  0.30593270  0.88072181  0.29975720     0.01600
C781        C  0.27994755  0.87329468  0.28761175    -0.14500
C782        C  0.25820819  0.88887805  0.29977578    -0.12200
C783        C  0.26146763  0.91262897  0.32369786     0.01100
C784        C  0.28706450  0.92047452  0.33589948    -0.24400
H785        H  0.34914925  0.81194956  0.22573895     0.09100
H786        H  0.30942336  0.83453685  0.24792653     0.12700
H787        H  0.39620770  0.86708398  0.30142343     0.11400
H788        H  0.37567837  0.90367494  0.34024969     0.12600
H789        H  0.33693885  0.93022639  0.35881237     0.11600
H790        H  0.27570128  0.85537833  0.26930772     0.08700
H791        H  0.23859772  0.88227614  0.29029195     0.12000
H792        H  0.28971211  0.93851637  0.35522908     0.13800
C793        C  0.43399523  0.32852416  0.35566292    -0.01700
C794        C  0.41167122  0.32390301  0.32923782    -0.09700
C795        C  0.39004159  0.34143405  0.33076435    -0.18500
C796        C  0.39039612  0.36426890  0.35864313     0.03900
C797        C  0.41230051  0.36738189  0.38790599     0.18000
C798        C  0.43359413  0.34955308  0.38628685    -0.20000
C799        C  0.41378253  0.38926847  0.41663595    -0.21200
C800        C  0.39489189  0.40921231  0.41493316    -0.19800
C801        C  0.37402582  0.40773818  0.38452905     0.19400
C802        C  0.37082171  0.38491266  0.35690569     0.01600
C803        C  0.34902050  0.38461725  0.32721209    -0.14500
C804        C  0.33230537  0.40679615  0.32316506    -0.12200
C805        C  0.33683526  0.42973578  0.34855868     0.01100
C806        C  0.35718260  0.42969927  0.38004960    -0.24400
H807        H  0.41171575  0.30783136  0.30511202     0.09100
H808        H  0.37392700  0.33734594  0.30832455     0.12700
H809        H  0.45089991  0.35314475  0.40677485     0.11400
H810        H  0.43027230  0.39152320  0.43935743     0.12600
H811        H  0.39718181  0.42641729  0.43644574     0.11600
H812        H  0.34500590  0.36793968  0.30561988     0.08700
H813        H  0.31675877  0.40656737  0.29838361     0.12000
H814        H  0.36068910  0.44748528  0.39975384     0.13800
C815        C  0.33561520  0.04248947  0.85584130    -0.01700
C816        C  0.33197808  0.06403320  0.82703728    -0.09700
C817        C  0.34893862  0.08616963  0.82888006    -0.18500
C818        C  0.37015194  0.08725384  0.85969159     0.03900
C819        C  0.37241529  0.06600596  0.89066612     0.18000
C820        C  0.35532757  0.04405068  0.88836693    -0.20000
C821        C  0.39265458  0.06596561  0.92233763    -0.21200
C822        C  0.41180165  0.08570569  0.92232142    -0.19800
C823        C  0.41127051  0.10593401  0.89051788     0.19400
C824        C  0.39005101  0.10766303  0.85956960     0.01600
C825        C  0.39069178  0.12885612  0.82849903    -0.14500
C826        C  0.41256731  0.14606750  0.82601291    -0.12200
C827        C  0.43419807  0.14272936  0.85453769     0.01100
C828        C  0.43283634  0.12339769  0.88782107    -0.24400
H829        H  0.31704743  0.06302815  0.80125568     0.09100
H830        H  0.34563939  0.10164973  0.80471954     0.12700
H831        H  0.35827825  0.02730598  0.91052718     0.11400
H832        H  0.39424580  0.04999554  0.94634104     0.12600
H833        H  0.42777035  0.08452464  0.94629437     0.11600
H834        H  0.37514160  0.13183426  0.80445137     0.08700
H835        H  0.41335190  0.16082438  0.79983973     0.12000
H836        H  0.44958830  0.12082042  0.90996913     0.13800
C837        C  0.50565661  0.22845233  0.97530698    -0.01700
C838        C  0.48777509  0.21645621  0.00450839    -0.09700
C839        C  0.48375306  0.22681000  0.04721246    -0.18500
C840        C  0.49729391  0.24987448  0.06184537     0.03900
C841        C  0.51446211  0.26271600  0.03106309     0.18000
C842        C  0.51877988  0.25170506  0.98849485    -0.20000
C843        C  0.52758185  0.28614702  0.04328375    -0.21200
C844        C  0.52484237  0.29658870  0.08606064    -0.19800
C845        C  0.50924479  0.28364236  0.11792246     0.19400
C846        C  0.49496410  0.26027408  0.10610780     0.01600
C847        C  0.47980119  0.24777567  0.13963863    -0.14500
C848        C  0.48001175  0.25711125  0.18341237    -0.12200
C849        C  0.49489317  0.27951976  0.19534277     0.01100
C850        C  0.50873342  0.29326596  0.16205341    -0.24400
H851        H  0.47752261  0.19847751  0.99471064     0.09100
H852        H  0.46995397  0.21609485  0.06816005     0.12700
H853        H  0.53248725  0.26115711  0.96552558     0.11400
H854        H  0.54038821  0.29626175  0.01976216     0.12600
H855        H  0.53563926  0.31451412  0.09467474     0.11600
H856        H  0.46818110  0.23005547  0.13350861     0.08700
H857        H  0.46891486  0.24631202  0.20837873     0.12000
H858        H  0.52041210  0.31060416  0.17100292     0.13800
C859        C  0.49730699  0.18790107  0.69406999    -0.01700
C860        C  0.51477329  0.17579140  0.66396858    -0.09700
C861        C  0.51629333  0.18439437  0.61973697    -0.18500
C862        C  0.50007548  0.20531859  0.60411224     0.03900
C863        C  0.48074452  0.21581817  0.63378085     0.18000
C864        C  0.47983268  0.20739352  0.67840929    -0.20000
C865        C  0.46296156  0.23522067  0.61907783    -0.21200
C866        C  0.46447069  0.24505928  0.57584211    -0.19800
C867        C  0.48441892  0.23647590  0.54673152     0.19400
C868        C  0.50265553  0.21659116  0.56057365     0.01600
C869        C  0.52346899  0.20985082  0.53109105    -0.14500
C870        C  0.52630853  0.22265491  0.49012844    -0.12200
C871        C  0.50814428  0.24197486  0.47643993     0.01100
C872        C  0.48687486  0.24839550  0.50446909    -0.24400
H873        H  0.52827388  0.16052016  0.67522491     0.09100
H874        H  0.53052697  0.17446359  0.59864409     0.12700
H875        H  0.46588179  0.21648902  0.70137427     0.11400
H876        H  0.44790673  0.24302869  0.64132595     0.12600
H877        H  0.45050963  0.26019636  0.56563705     0.11600
H878        H  0.53847451  0.19548538  0.53946889     0.08700
H879        H  0.54290972  0.21744713  0.46892931     0.12000
H880        H  0.47300190  0.26364417  0.49428617     0.13800
C881        C  0.83739052  0.93139359  0.69585336    -0.01700
C882        C  0.83174178  0.90795088  0.71903079    -0.09700
C883        C  0.84889415  0.88603235  0.71606912    -0.18500
C884        C  0.87230607  0.88722658  0.68997738     0.03900
C885        C  0.87658076  0.91049019  0.66409550     0.18000
C886        C  0.85910646  0.93198741  0.66695563    -0.20000
C887        C  0.89922277  0.91304578  0.63765135    -0.21200
C888        C  0.91887705  0.89389736  0.63886869    -0.19800
C889        C  0.91620225  0.87160954  0.66617570     0.19400
C890        C  0.89248132  0.86719441  0.69067504     0.01600
C891        C  0.89084850  0.84371045  0.71658210    -0.14500
C892        C  0.91277022  0.82675069  0.72101437    -0.12200
C893        C  0.93671048  0.83277961  0.69976574     0.01100
C894        C  0.93785352  0.85454438  0.67100076    -0.24400
H895        H  0.81500098  0.90715409  0.74160086     0.09100
H896        H  0.84404905  0.86897409  0.73611873     0.12700
H897        H  0.86334810  0.95006455  0.64864025     0.11400
H898        H  0.90234426  0.93060605  0.61746884     0.12600
H899        H  0.93676105  0.89706501  0.61960780     0.11600
H900        H  0.87327344  0.83852108  0.73499188     0.08700
H901        H  0.91149076  0.80984084  0.74317396     0.12000
H902        H  0.95629275  0.85899526  0.65400084     0.13800
C903        C  0.60020712  0.12992024  0.79223145    -0.01700
C904        C  0.59747172  0.10570831  0.76943947    -0.09700
C905        C  0.61962371  0.09060737  0.75769545    -0.18500
C906        C  0.64545677  0.09948115  0.76791297     0.03900
C907        C  0.64815517  0.12466387  0.78918125     0.18000
C908        C  0.62565936  0.13934172  0.80175980    -0.20000
C909        C  0.67329832  0.13503790  0.79791360    -0.21200
C910        C  0.69589053  0.12101457  0.78577329    -0.19800
C911        C  0.69391638  0.09589991  0.76583449     0.19400
C912        C  0.66870009  0.08446295  0.75743584     0.01600
C913        C  0.66792532  0.05841033  0.73939297    -0.14500
C914        C  0.69122868  0.04472834  0.72885812    -0.12200
C915        C  0.71595494  0.05662791  0.73535138     0.01100
C916        C  0.71710502  0.08216085  0.75419096    -0.24400
H917        H  0.57799893  0.09792521  0.76184152     0.09100
H918        H  0.61589558  0.07219288  0.74048723     0.12700
H919        H  0.62796259  0.15814351  0.81905260     0.11400
H920        H  0.67551528  0.15426509  0.81385325     0.12600
H921        H  0.71506873  0.12976864  0.79246430     0.11600
H922        H  0.64967046  0.04802973  0.73333584     0.08700
H923        H  0.68984871  0.02500811  0.71440878     0.12000
H924        H  0.73618416  0.09138378  0.75993290     0.13800
C925        C  0.64428298  0.93124311  0.19592520    -0.01700
C926        C  0.62573699  0.93096731  0.16140722    -0.09700
C927        C  0.60739346  0.91035672  0.15742233    -0.18500
C928        C  0.60645276  0.88951441  0.18892400     0.03900
C929        C  0.62628625  0.88905658  0.22252758     0.18000
C930        C  0.64512128  0.90974848  0.22551560    -0.20000
C931        C  0.62626554  0.86874361  0.25435568    -0.21200
C932        C  0.60635796  0.84955568  0.25478642    -0.19800
C933        C  0.58578081  0.85025249  0.22361900     0.19400
C934        C  0.58580078  0.86998016  0.18968968     0.01600
C935        C  0.56431544  0.87020117  0.15955984    -0.14500
C936        C  0.54299777  0.85284350  0.16474893    -0.12200
C937        C  0.54258860  0.83411876  0.19909079     0.01100
C938        C  0.56442782  0.83227378  0.22760638    -0.24400
H939        H  0.62464894  0.94753606  0.13849414     0.09100
H940        H  0.59355663  0.91192696  0.13028526     0.12700
H941        H  0.65912216  0.91015190  0.25285353     0.11400
H942        H  0.64136751  0.86810966  0.27991550     0.12600
H943        H  0.60659132  0.83456763  0.28063639     0.11600
H944        H  0.56278721  0.88429321  0.13272370     0.08700
H945        H  0.52616650  0.85468993  0.14265947     0.12000
H946        H  0.56392909  0.81813391  0.25479551     0.13800
C947        C  0.56661981  0.21447482  0.31601307    -0.01700
C948        C  0.59398802  0.21631284  0.30858065    -0.09700
C949        C  0.60899070  0.19386138  0.29827746    -0.18500
C950        C  0.59716203  0.16849566  0.29519445     0.03900
C951        C  0.56937588  0.16667282  0.30239942     0.18000
C952        C  0.55440755  0.18954885  0.31224198    -0.20000
C953        C  0.55673894  0.14195099  0.30046922    -0.21200
C954        C  0.57112522  0.11890768  0.29218169    -0.19800
C955        C  0.59845468  0.12003682  0.28484953     0.19400
C956        C  0.61187731  0.14487615  0.28556592     0.01600
C957        C  0.63932837  0.14494990  0.27590321    -0.14500
C958        C  0.65264401  0.12145016  0.26509249    -0.12200
C959        C  0.63930016  0.09711413  0.26499276     0.01100
C960        C  0.61233016  0.09647194  0.27558642    -0.24400
H961        H  0.60406444  0.23524730  0.31124843     0.09100
H962        H  0.62993729  0.19700983  0.29369609     0.12700
H963        H  0.53330440  0.18778313  0.31816348     0.11400
H964        H  0.53558419  0.14038261  0.30584897     0.12600
H965        H  0.56074657  0.10006024  0.29115333     0.11600
H966        H  0.65094872  0.16293653  0.27512553     0.08700
H967        H  0.67341082  0.12230198  0.25622018     0.12000
H968        H  0.60180264  0.07768265  0.27421157     0.13800
C969        C  0.61174320  0.04021439  0.11277658    -0.01700
C970        C  0.58859741  0.05349374  0.12547153    -0.09700
C971        C  0.57184232  0.06430064  0.09324701    -0.18500
C972        C  0.57792710  0.06200578  0.04730368     0.03900
C973        C  0.59984622  0.04588062  0.03486911     0.18000
C974        C  0.61659899  0.03539724  0.06754084    -0.20000
C975        C  0.60585183  0.04159132  0.98989658    -0.21200
C976        C  0.59150959  0.05430645  0.95683343    -0.19800
C977        C  0.57144573  0.07227936  0.96807202     0.19400
C978        C  0.56409307  0.07622059  0.01343734     0.01600
C979        C  0.54483180  0.09586003  0.02307589    -0.14500
C980        C  0.53495093  0.11222603  0.98943343    -0.12200
C981        C  0.54293537  0.10862814  0.94516879     0.01100
C982        C  0.56015497  0.08783426  0.93440689    -0.24400
H983        H  0.58438332  0.05713609  0.16040286     0.09100
H984        H  0.55478213  0.07497522  0.10523690     0.12700
H985        H  0.63427814  0.02465171  0.05772555     0.11400
H986        H  0.62225789  0.02894739  0.98026234     0.12600
H987        H  0.59714358  0.05118954  0.92232593     0.11600
H988        H  0.53837004  0.10022515  0.05652877     0.08700
H989        H  0.52176445  0.12840749  0.99822061     0.12000
H990        H  0.56676532  0.08546972  0.90019170     0.13800
C991        C  0.73333835  0.00416509  0.07369612    -0.01700
C992        C  0.74905919  0.02490389  0.05718020    -0.09700
C993        C  0.76191604  0.02271072  0.01620460    -0.18500
C994        C  0.75906273  0.99972870  0.98953106     0.03900
C995        C  0.74281929  0.97880123  0.00599230     0.18000
C996        C  0.73071472  0.98087648  0.04829533    -0.20000
C997        C  0.73800263  0.95640014  0.97938997    -0.21200
C998        C  0.74788121  0.95494225  0.93606125    -0.19800
C999        C  0.76376423  0.97531829  0.91890305     0.19400
C1000       C  0.77068590  0.99736144  0.94621296     0.01600
C1001       C  0.78859150  0.01627739  0.92862899    -0.14500
C1002       C  0.79749515  0.01448342  0.88460417    -0.12200
C1003       C  0.78860103  0.99407796  0.85660438     0.01100
C1004       C  0.77224740  0.97417994  0.87422515    -0.24400
H1005       H  0.75143056  0.04311507  0.07614734     0.09100
H1006       H  0.77317128  0.03977462  0.00559034     0.12700
H1007       H  0.71831010  0.96489337  0.06053705     0.11400
H1008       H  0.72569701  0.94034324  0.99156749     0.12600
H1009       H  0.74291468  0.93781414  0.91570954     0.11600
H1010       H  0.79596613  0.03277401  0.94803705     0.08700
H1011       H  0.81034964  0.02990074  0.87172613     0.12000
H1012       H  0.76573471  0.95804069  0.85282179     0.13800
C1013       C  0.69639710  0.98930584  0.35602903    -0.01700
C1014       C  0.68139258  0.00240156  0.38869352    -0.09700
C1015       C  0.68939718  0.00259715  0.43322452    -0.18500
C1016       C  0.71280192  0.98952858  0.44675209     0.03900
C1017       C  0.72669438  0.97429399  0.41433557     0.18000
C1018       C  0.71863764  0.97458794  0.36940011    -0.20000
C1019       C  0.74895879  0.95950995  0.42679290    -0.21200
C1020       C  0.75834366  0.96037884  0.47041700    -0.19800
C1021       C  0.74625529  0.97676321  0.50233240     0.19400
C1022       C  0.72327669  0.99159638  0.49089062     0.01600
C1023       C  0.71266468  0.00905479  0.52333399    -0.14500
C1024       C  0.72484497  0.01231123  0.56464997    -0.12200
C1025       C  0.74743004  0.99775246  0.57574347     0.01100
C1026       C  0.75768960  0.97942214  0.54498135    -0.24400
H1027       H  0.66389840  0.01352195  0.37955944     0.09100
H1028       H  0.67694561  0.01337055  0.45622752     0.12700
H1029       H  0.73006436  0.96380116  0.34461987     0.11400
H1030       H  0.75941246  0.94745952  0.40246344     0.12600
H1031       H  0.77580743  0.94896001  0.47878266     0.11600
H1032       H  0.69566975  0.02140664  0.51710285     0.08700
H1033       H  0.71674604  0.02663976  0.58802771     0.12000
H1034       H  0.77545978  0.96844475  0.55328272     0.13800
C1035       C  0.04059638  0.33157947  0.84904871    -0.01700
C1036       C  0.06388868  0.32548608  0.82588553    -0.09700
C1037       C  0.08607943  0.34217851  0.82935964    -0.18500
C1038       C  0.08534979  0.36545668  0.85616567     0.03900
C1039       C  0.06218829  0.37006576  0.88210349     0.18000
C1040       C  0.04029736  0.35323222  0.87830514    -0.20000
C1041       C  0.06029867  0.39228723  0.90997988    -0.21200
C1042       C  0.08028001  0.41109661  0.91074632    -0.19800
C1043       C  0.10250497  0.40822780  0.88338117     0.19400
C1044       C  0.10591322  0.38508764  0.85657444     0.01600
C1045       C  0.12893376  0.38359667  0.82953515    -0.14500
C1046       C  0.14653955  0.40515033  0.82665001    -0.12200
C1047       C  0.14175541  0.42847200  0.85093839     0.01100
C1048       C  0.12043874  0.42932246  0.88062283    -0.24400
H1049       H  0.06442089  0.30873617  0.80312081     0.09100
H1050       H  0.10314113  0.33694275  0.80956517     0.12700
H1051       H  0.02228686  0.35777964  0.89657716     0.11400
H1052       H  0.04279822  0.39564010  0.93017372     0.12600
H1053       H  0.07778950  0.42860719  0.93151009     0.11600
H1054       H  0.13312792  0.36658697  0.80870866     0.08700
H1055       H  0.16289028  0.40423583  0.80330528     0.12000
H1056       H  0.11680413  0.44739708  0.89955632     0.13800
C1057       C  0.91049215  0.21537267  0.81951330    -0.01700
C1058       C  0.88522080  0.21796588  0.80095204    -0.09700
C1059       C  0.87054854  0.19563606  0.78884185    -0.18500
C1060       C  0.88059395  0.16974676  0.79545783     0.03900
C1061       C  0.90607722  0.16722073  0.81509663     0.18000
C1062       C  0.92086903  0.18992406  0.82630898    -0.20000
C1063       C  0.91657202  0.14204955  0.82376296    -0.21200
C1064       C  0.90236975  0.11925266  0.81316893    -0.19800
C1065       C  0.87752423  0.12105493  0.79291376     0.19400
C1066       C  0.86630488  0.14630204  0.78340540     0.01600
C1067       C  0.84154306  0.14690689  0.76144763    -0.14500
C1068       C  0.82881121  0.12344530  0.74871589    -0.12200
C1069       C  0.83997171  0.09868085  0.75829796     0.01100
C1070       C  0.86412748  0.09765885  0.78107402    -0.24400
H1071       H  0.87672486  0.23745804  0.79556731     0.09100
H1072       H  0.85126886  0.19934618  0.77491468     0.12700
H1073       H  0.94022931  0.18777129  0.84138676     0.11400
H1074       H  0.93588584  0.13997083  0.83897687     0.12600
H1075       H  0.91105677  0.10004221  0.82031457     0.11600
H1076       H  0.83179094  0.16517955  0.75255494     0.08700
H1077       H  0.81024183  0.12468158  0.73090390     0.12000
H1078       H  0.87315651  0.07853849  0.78785503     0.13800
C1079       C  0.14662411  0.04563209  0.35427472    -0.01700
C1080       C  0.15005885  0.06723770  0.32545631    -0.09700
C1081       C  0.13238146  0.08887600  0.32662576    -0.18500
C1082       C  0.11055148  0.08922198  0.35648993     0.03900
C1083       C  0.10859633  0.06803435  0.38762758     0.18000
C1084       C  0.12658449  0.04683359  0.38642096    -0.20000
C1085       C  0.08766767  0.06707538  0.41810376    -0.21200
C1086       C  0.06752669  0.08573233  0.41660183    -0.19800
C1087       C  0.06789123  0.10596867  0.38481739     0.19400
C1088       C  0.08976962  0.10873340  0.35521840     0.01600
C1089       C  0.08901451  0.13007230  0.32444564    -0.14500
C1090       C  0.06669870  0.14669871  0.32142954    -0.12200
C1091       C  0.04460634  0.14250893  0.34884330     0.01100
C1092       C  0.04574313  0.12261976  0.38120633    -0.24400
H1093       H  0.16531788  0.06658953  0.30005233     0.09100
H1094       H  0.13548665  0.10438719  0.30248769     0.12700
H1095       H  0.12386316  0.03011779  0.40871792     0.11400
H1096       H  0.08628499  0.05111433  0.44216624     0.12600
H1097       H  0.05107159  0.08378216  0.43957479     0.11600
H1098       H  0.10497849  0.13378189  0.30142990     0.08700
H1099       H  0.06611437  0.16187514  0.29591085     0.12000
H1100       H  0.02867811  0.11933706  0.40247555     0.13800
C1101       C  0.76480304  0.05887864  0.23146255    -0.01700
C1102       C  0.78946402  0.04974294  0.21667507    -0.09700
C1103       C  0.81231455  0.06498063  0.22346217    -0.18500
C1104       C  0.81116707  0.08975475  0.24603697     0.03900
C1105       C  0.78616648  0.09836393  0.26231773     0.18000
C1106       C  0.76337710  0.08317922  0.25435676    -0.20000
C1107       C  0.78400841  0.12202909  0.28670923    -0.21200
C1108       C  0.80634149  0.13700281  0.29660607    -0.19800
C1109       C  0.83127613  0.12910694  0.28119955     0.19400
C1110       C  0.83394326  0.10592662  0.25426682     0.01600
C1111       C  0.85934103  0.09986399  0.23723405    -0.14500
C1112       C  0.88142310  0.11493187  0.24944652    -0.12200
C1113       C  0.87899913  0.13640640  0.27911485     0.01100
C1114       C  0.85368551  0.14388466  0.29365199    -0.24400
H1115       H  0.79097182  0.03114913  0.19850709     0.09100
H1116       H  0.83058014  0.05675770  0.21109822     0.12700
H1117       H  0.74435508  0.09031148  0.26610665     0.11400
H1118       H  0.76497811  0.12869555  0.29911907     0.12600
H1119       H  0.80410799  0.15481515  0.31667309     0.11600
H1120       H  0.86279639  0.08343258  0.21488437     0.08700
H1121       H  0.90068422  0.10891929  0.23713977     0.12000
H1122       H  0.85147840  0.16078931  0.31584580     0.13800
C1123       C  0.93439422  0.10936233  0.43586903    -0.01700
C1124       C  0.94271828  0.11289850  0.47988478    -0.09700
C1125       C  0.93306274  0.09657124  0.51373763    -0.18500
C1126       C  0.91377769  0.07691160  0.50462254     0.03900
C1127       C  0.90613710  0.07291995  0.45944990     0.18000
C1128       C  0.91711631  0.08856964  0.42546942    -0.20000
C1129       C  0.88614024  0.05476123  0.44881753    -0.21200
C1130       C  0.87214895  0.04191659  0.48232429    -0.19800
C1131       C  0.87840391  0.04631292  0.52713975     0.19400
C1132       C  0.90025858  0.06266663  0.53889798     0.01600
C1133       C  0.90663165  0.06511675  0.58463840    -0.14500
C1134       C  0.89029011  0.05412942  0.61736462    -0.12200
C1135       C  0.86722127  0.04050334  0.60545326     0.01100
C1136       C  0.86201124  0.03565392  0.56036004    -0.24400
H1137       H  0.95597750  0.12906167  0.48834933     0.09100
H1138       H  0.93978880  0.10097676  0.54702809     0.12700
H1139       H  0.91028185  0.08623691  0.39140505     0.11400
H1140       H  0.88030700  0.05155515  0.41446318     0.12600
H1141       H  0.85581101  0.02907670  0.47317293     0.11600
H1142       H  0.92366425  0.07602891  0.59617772     0.08700
H1143       H  0.89477622  0.05783993  0.65213219     0.12000
H1144       H  0.84438589  0.02465766  0.55111367     0.13800
C1145       C  0.97143446  0.24679974  0.97567961    -0.01700
C1146       C  0.99542315  0.25035878  0.99802020    -0.09700
C1147       C  0.99945369  0.23882930  0.03980758    -0.18500
C1148       C  0.97956536  0.22308741  0.06008703     0.03900
C1149       C  0.95589163  0.21844325  0.03582689     0.18000
C1150       C  0.95197182  0.23050246  0.99445920    -0.20000
C1151       C  0.93603434  0.20208831  0.05316831    -0.21200
C1152       C  0.93888967  0.19056407  0.09478445    -0.19800
C1153       C  0.96135971  0.19569914  0.12047289     0.19400
C1154       C  0.98202614  0.21212470  0.10369926     0.01600
C1155       C  0.00360995  0.21779753  0.13213465    -0.14500
C1156       C  0.00401031  0.20844530  0.17588354    -0.12200
C1157       C  0.98352961  0.19241126  0.19190168     0.01100
C1158       C  0.96267192  0.18547113  0.16376223    -0.24400
H1159       H  0.01081973  0.26265299  0.98368014     0.09100
H1160       H  0.01829305  0.24256840  0.05534952     0.12700
H1161       H  0.93359017  0.22717730  0.97668233     0.11400
H1162       H  0.91806562  0.19832689  0.03452560     0.12600
H1163       H  0.92305510  0.17817432  0.10751265     0.11600
H1164       H  0.01985108  0.23035083  0.12225038     0.08700
H1165       H  0.02012026  0.21418959  0.19764031     0.12000
H1166       H  0.94648959  0.17357408  0.17669886     0.13800
C1167       C  0.97214444  0.22852884  0.47273659    -0.01700
C1168       C  0.99547910  0.22457362  0.49679499    -0.09700
C1169       C  0.99819744  0.23512280  0.53979101    -0.18500
C1170       C  0.97760132  0.25021205  0.55964952     0.03900
C1171       C  0.95471552  0.25541435  0.53371476     0.18000
C1172       C  0.95212522  0.24439252  0.49110763    -0.20000
C1173       C  0.93427644  0.27127074  0.55059044    -0.21200
C1174       C  0.93583348  0.28187529  0.59321711    -0.19800
C1175       C  0.95752575  0.27625756  0.62039545     0.19400
C1176       C  0.97864427  0.26011368  0.60429705     0.01600
C1177       C  0.99928582  0.25377618  0.63419583    -0.14500
C1178       C  0.99862498  0.26271501  0.67832701    -0.12200
C1179       C  0.97795406  0.27889776  0.69347634     0.01100
C1180       C  0.95773173  0.28598675  0.66421830    -0.24400
H1181       H  0.01133366  0.21264352  0.48287977     0.09100
H1182       H  0.01656353  0.23114926  0.55662591     0.12700
H1183       H  0.93426893  0.24808588  0.47213873     0.11400
H1184       H  0.91689460  0.27543124  0.53071664     0.12600
H1185       H  0.91963561  0.29401131  0.60541357     0.11600
H1186       H  0.01565784  0.24121164  0.62494320     0.08700
H1187       H  0.01426336  0.25682253  0.70087113     0.12000
H1188       H  0.94138181  0.29797058  0.67635795     0.13800
C1189       C  0.93712613  0.63947094  0.19716393    -0.01700
C1190       C  0.91316131  0.64557098  0.21837625    -0.09700
C1191       C  0.89111062  0.62876543  0.21348700    -0.18500
C1192       C  0.89257088  0.60532366  0.18715912     0.03900
C1193       C  0.91644701  0.60061500  0.16319141     0.18000
C1194       C  0.93820822  0.61759164  0.16833574    -0.20000
C1195       C  0.91913239  0.57813992  0.13604175    -0.21200
C1196       C  0.89930392  0.55914033  0.13439205    -0.19800
C1197       C  0.87629936  0.56214843  0.15984789     0.19400
C1198       C  0.87202301  0.58562679  0.18545900     0.01600
C1199       C  0.84807393  0.58744799  0.21002425    -0.14500
C1200       C  0.83032016  0.56595222  0.21186313    -0.12200
C1201       C  0.83590161  0.54222815  0.18916000     0.01100
C1202       C  0.85832690  0.54097063  0.16183045    -0.30800
H1203       H  0.91193520  0.66245189  0.24077870     0.09100
H1204       H  0.87353184  0.63403349  0.23196819     0.12700
H1205       H  0.95668193  0.61299262  0.15147281     0.11400
H1206       H  0.93716183  0.57470089  0.11725391     0.12600
H1207       H  0.90245593  0.54142757  0.11438467     0.11600
H1208       H  0.84313129  0.60477895  0.22962196     0.08700
H1209       H  0.81312066  0.56726285  0.23334095     0.12000
H1210       H  0.86262941  0.52263908  0.14402936     0.13800
C1211       C  0.59901651  0.34265713  0.29098150    -0.01700
C1212       C  0.59613098  0.36515573  0.26393067    -0.09700
C1213       C  0.61801005  0.38077390  0.25240810    -0.18500
C1214       C  0.64372813  0.37414643  0.26715735     0.03900
C1215       C  0.64666709  0.35060209  0.29283257     0.18000
C1216       C  0.62443706  0.33543985  0.30499607    -0.20000
C1217       C  0.67179676  0.34230472  0.30635740    -0.21200
C1218       C  0.69418450  0.35668256  0.29448885    -0.19800
C1219       C  0.69196755  0.38018313  0.26996292     0.19400
C1220       C  0.66668704  0.38970574  0.25688956     0.01600
C1221       C  0.66560559  0.41441347  0.23441931    -0.14500
C1222       C  0.68875831  0.42837521  0.22370111    -0.12200
C1223       C  0.71365726  0.41802475  0.23442710     0.01100
C1224       C  0.71501292  0.39409385  0.25813660    -0.24400
H1225       H  0.57670456  0.37124305  0.25273376     0.09100
H1226       H  0.61421578  0.39782736  0.23173130     0.12700
H1227       H  0.62693819  0.31796137  0.32561053     0.11400
H1228       H  0.67419899  0.32434641  0.32577877     0.12600
H1229       H  0.71339588  0.34944044  0.30484080     0.11600
H1230       H  0.64715778  0.42345087  0.22479610     0.08700
H1231       H  0.68720084  0.44689701  0.20559234     0.12000
H1232       H  0.73419025  0.38616008  0.26728036     0.13800
C1233       C  0.83958184  0.37613444  0.25868902    -0.01700
C1234       C  0.83170783  0.35121509  0.24254348    -0.09700
C1235       C  0.84583600  0.32826229  0.25309528    -0.18500
C1236       C  0.86878157  0.32940506  0.27997637     0.03900
C1237       C  0.87644513  0.35460127  0.29721914     0.18000
C1238       C  0.86171148  0.37756825  0.28690362    -0.20000
C1239       C  0.89914879  0.35679765  0.32369631    -0.21200
C1240       C  0.91461706  0.33456314  0.33297490    -0.19800
C1241       C  0.90771375  0.30946551  0.31629736     0.19400
C1242       C  0.88453335  0.30652564  0.28985201     0.01600
C1243       C  0.87807946  0.28075812  0.27444538    -0.14500
C1244       C  0.89362007  0.25888159  0.28542399    -0.12200
C1245       C  0.91637721  0.26170258  0.31152083     0.01100
C1246       C  0.92358327  0.28716887  0.32642101    -0.24400
H1247       H  0.81475539  0.34945076  0.22069984     0.09100
H1248       H  0.83854782  0.31007575  0.23881176     0.12700
H1249       H  0.86821578  0.39674487  0.29927335     0.11400
H1250       H  0.90514702  0.37592239  0.33699497     0.12600
H1251       H  0.93210739  0.33702052  0.35338155     0.11600
H1252       H  0.86095664  0.27667291  0.25442349     0.08700
H1253       H  0.88759847  0.23941788  0.27362019     0.12000
H1254       H  0.94091483  0.28946910  0.34727168     0.13800
C1255       C  0.86520282  0.43365020  0.10465347    -0.01700
C1256       C  0.88924472  0.42197388  0.11661616    -0.09700
C1257       C  0.90656918  0.41256492  0.08391162    -0.18500
C1258       C  0.90017791  0.41463262  0.03816898     0.03900
C1259       C  0.87707346  0.42910289  0.02644150     0.18000
C1260       C  0.85975360  0.43823605  0.05964813    -0.20000
C1261       C  0.87055375  0.43297412  0.98165748    -0.21200
C1262       C  0.88536831  0.42099762  0.94815483    -0.19800
C1263       C  0.90654752  0.40432495  0.95883412     0.19400
C1264       C  0.91475399  0.40141159  0.00389974     0.01600
C1265       C  0.93554920  0.38341518  0.01299718    -0.14500
C1266       C  0.94555055  0.36688844  0.97956552    -0.12200
C1267       C  0.93610578  0.36880541  0.93597602     0.01100
C1268       C  0.91793931  0.38867041  0.92518121    -0.24400
H1269       H  0.89391913  0.41861452  0.15136564     0.09100
H1270       H  0.92437374  0.40305562  0.09549366     0.12700
H1271       H  0.84135053  0.44783876  0.05043702     0.11400
H1272       H  0.85327596  0.44447608  0.97254855     0.12600
H1273       H  0.87918862  0.42345662  0.91383380     0.11600
H1274       H  0.94310853  0.38019969  0.04611336     0.08700
H1275       H  0.95969468  0.35158316  0.98821057     0.12000
H1276       H  0.91041590  0.38983614  0.89137860     0.13800
C1277       C  0.64127808  0.53952450  0.68796792    -0.01700
C1278       C  0.64697880  0.56392931  0.70831333    -0.09700
C1279       C  0.62931641  0.58538314  0.70448374    -0.18500
C1280       C  0.60529480  0.58275596  0.68046259     0.03900
C1281       C  0.60084257  0.55843794  0.65734219     0.18000
C1282       C  0.61887757  0.53743971  0.66083833    -0.20000
C1283       C  0.57753825  0.55441497  0.63323483    -0.21200
C1284       C  0.55752715  0.57323615  0.63422192    -0.19800
C1285       C  0.56050476  0.59669303  0.65882427     0.19400
C1286       C  0.58477645  0.60246271  0.68074531     0.01600
C1287       C  0.58671130  0.62703317  0.70384027    -0.14500
C1288       C  0.56470841  0.64392392  0.70816487    -0.12200
C1289       C  0.54032133  0.63677083  0.68965908     0.01100
C1290       C  0.53872962  0.61370511  0.66357535    -0.24400
H1291       H  0.66418555  0.56590201  0.72951055     0.09100
H1292       H  0.63429589  0.60327557  0.72243852     0.12700
H1293       H  0.61454115  0.51859265  0.64470445     0.11400
H1294       H  0.57423663  0.53601027  0.61516816     0.12600
H1295       H  0.53920881  0.56898166  0.61689825     0.11600
H1296       H  0.60466048  0.63322918  0.72014190     0.08700
H1297       H  0.56634750  0.66176072  0.72828734     0.12000
H1298       H  0.51992848  0.60828886  0.64870225     0.13800
C1299       C  0.63705222  0.37454117  0.75646200    -0.01700
C1300       C  0.61414764  0.37713694  0.78244646    -0.09700
C1301       C  0.59958238  0.35485549  0.79503423    -0.18500
C1302       C  0.60768638  0.32901908  0.78244146     0.03900
C1303       C  0.63188906  0.32634884  0.75855752     0.18000
C1304       C  0.64602989  0.34904376  0.74506650    -0.20000
C1305       C  0.64166187  0.30106235  0.74800587    -0.21200
C1306       C  0.62784849  0.27834375  0.76055307    -0.19800
C1307       C  0.60344576  0.28037235  0.78250819     0.19400
C1308       C  0.59273168  0.30576552  0.79291644     0.01600
C1309       C  0.56726800  0.30678481  0.81252862    -0.14500
C1310       C  0.55341747  0.28356237  0.82262695    -0.12200
C1311       C  0.56455675  0.25859137  0.81418857     0.01100
C1312       C  0.58957756  0.25714164  0.79394225    -0.24400
H1313       H  0.60684366  0.39662613  0.79174324     0.09100
H1314       H  0.58210688  0.35852189  0.81479987     0.12700
H1315       H  0.66396350  0.34688487  0.72545032     0.11400
H1316       H  0.66022146  0.29883272  0.73020356     0.12600
H1317       H  0.63608847  0.25904826  0.75233199     0.11600
H1318       H  0.55733151  0.32524542  0.81993158     0.08700
H1319       H  0.53412612  0.28517640  0.83817824     0.12000
H1320       H  0.59819115  0.23784810  0.78672623     0.13800
C1321       C  0.53868993  0.36523353  0.44156932    -0.01700
C1322       C  0.53152487  0.36096760  0.48597257    -0.09700
C1323       C  0.54085511  0.37772960  0.51949726    -0.18500
C1324       C  0.55872880  0.39852164  0.50945724     0.03900
C1325       C  0.56481247  0.40343058  0.46389376     0.18000
C1326       C  0.55395196  0.38738851  0.43037064    -0.20000
C1327       C  0.58357555  0.42265830  0.45227635    -0.21200
C1328       C  0.59829717  0.43535721  0.48503955    -0.19800
C1329       C  0.59382681  0.42979648  0.53006284     0.19400
C1330       C  0.57276327  0.41274506  0.54302676     0.01600
C1331       C  0.56792917  0.40931090  0.58909037    -0.14500
C1332       C  0.58538760  0.41957785  0.62065000    -0.12200
C1333       C  0.60795210  0.43346652  0.60710332     0.01100
C1334       C  0.61136547  0.43974212  0.56209957    -0.24400
H1335       H  0.51971883  0.34380757  0.49497207     0.09100
H1336       H  0.53535196  0.37262518  0.55309627     0.12700
H1337       H  0.55981902  0.39034565  0.39593252     0.11400
H1338       H  0.58814763  0.42659345  0.41760789     0.12600
H1339       H  0.61393856  0.44883534  0.47505025     0.11600
H1340       H  0.55137614  0.39807963  0.60164057     0.08700
H1341       H  0.58223322  0.41499471  0.65552675     0.12000
H1342       H  0.62854864  0.45111844  0.55181704     0.13800
C1343       C  0.87459239  0.33948792  0.79039301    -0.01700
C1344       C  0.84973938  0.32981406  0.80301533    -0.09700
C1345       C  0.82668866  0.34314250  0.79068748    -0.18500
C1346       C  0.82782308  0.36706982  0.76604788     0.03900
C1347       C  0.85316753  0.37691901  0.75380750     0.18000
C1348       C  0.87613779  0.36285705  0.76526571    -0.20000
C1349       C  0.85550382  0.40106974  0.73110606    -0.21200
C1350       C  0.83316902  0.41584129  0.72047713    -0.19800
C1351       C  0.80789503  0.40655669  0.73141730     0.19400
C1352       C  0.80482799  0.38181494  0.75376675     0.01600
C1353       C  0.77886283  0.37281958  0.76244440    -0.14500
C1354       C  0.75697612  0.38768902  0.74946689    -0.12200
C1355       C  0.76007388  0.41219682  0.72801371     0.01100
C1356       C  0.78561132  0.42168129  0.71948242    -0.24400
H1357       H  0.84813906  0.31193400  0.82285659     0.09100
H1358       H  0.80831581  0.33454147  0.80201624     0.12700
H1359       H  0.89538439  0.37078416  0.75629300     0.11400
H1360       H  0.87479091  0.40876090  0.72195568     0.12600
H1361       H  0.83567785  0.43457240  0.70322480     0.11600
H1362       H  0.77473324  0.35408187  0.77843345     0.08700
H1363       H  0.73739978  0.37988973  0.75621225     0.12000
H1364       H  0.78812423  0.44040741  0.70214336     0.13800
C1365       C  0.69425438  0.47882662  0.84992062    -0.01700
C1366       C  0.68371916  0.45982932  0.87890454    -0.09700
C1367       C  0.69224466  0.45829710  0.92297713    -0.18500
C1368       C  0.71147878  0.47608786  0.93980783     0.03900
C1369       C  0.72069710  0.49657961  0.91119106     0.18000
C1370       C  0.71249534  0.49742269  0.86637653    -0.20000
C1371       C  0.73832481  0.51579380  0.92736760    -0.21200
C1372       C  0.74749801  0.51471652  0.97109168    -0.19800
C1373       C  0.74006299  0.49383750  0.99923925     0.19400
C1374       C  0.72209092  0.47408778  0.98377210     0.01600
C1375       C  0.71635486  0.45256062  0.01229740    -0.14500
C1376       C  0.72821053  0.45051676  0.05398922    -0.12200
C1377       C  0.74576831  0.47002412  0.06934184     0.01100
C1378       C  0.75119530  0.49200821  0.04219999    -0.24400
H1379       H  0.66954265  0.44533662  0.86691681     0.09100
H1380       H  0.68334989  0.44293618  0.94305840     0.12700
H1381       H  0.72042264  0.51244000  0.84417321     0.11400
H1382       H  0.74513672  0.53173264  0.90599910     0.12600
H1383       H  0.76117034  0.52986320  0.98251530     0.11600
H1384       H  0.70350042  0.43639984  0.00276345     0.08700
H1385       H  0.72370374  0.43336240  0.07437714     0.12000
H1386       H  0.76505452  0.50700165  0.05364697     0.13800
C1387       C  0.72815477  0.47133168  0.56643257    -0.01700
C1388       C  0.72079400  0.49340712  0.54113156    -0.09700
C1389       C  0.73211390  0.49780775  0.49917686    -0.18500
C1390       C  0.75160467  0.48037334  0.48173225     0.03900
C1391       C  0.75986519  0.45879305  0.50882770     0.18000
C1392       C  0.74781761  0.45424646  0.55024731    -0.20000
C1393       C  0.77992468  0.44166186  0.49431226    -0.21200
C1394       C  0.79157436  0.44501553  0.45276976    -0.19800
C1395       C  0.78296100  0.46514733  0.42425282     0.19400
C1396       C  0.76289107  0.48320375  0.43824477     0.01600
C1397       C  0.75423372  0.50249861  0.40734073    -0.14500
C1398       C  0.76406112  0.50280847  0.36377656    -0.12200
C1399       C  0.78334438  0.48453564  0.35002724     0.01100
C1400       C  0.79341077  0.46642546  0.38092946    -0.24400
H1401       H  0.70573062  0.50692649  0.55335711     0.09100
H1402       H  0.72528094  0.51499646  0.48132180     0.12700
H1403       H  0.75389275  0.43740530  0.57023171     0.11400
H1404       H  0.78651116  0.42539728  0.51511001     0.12600
H1405       H  0.80685168  0.43121784  0.44230819     0.11600
H1406       H  0.73908444  0.51680558  0.41516037     0.08700
H1407       H  0.75601652  0.51698750  0.34031647     0.12000
H1408       H  0.80805186  0.45198097  0.37027084     0.13800
loop_ 
_geom_bond_atom_site_label_1 
_geom_bond_atom_site_label_2 
_geom_bond_distance 
_geom_bond_site_symmetry_2 
_ccdc_geom_bond_type 
Fe1          O17   2.062       .  S
Fe1           O7   2.115       .  S
Fe1          O14   2.104       .  S
Fe1           O6   2.065       .  S
Fe1          O12   1.963       .  S
Fe2           O5   2.047       .  S
Fe2           O9   2.074       .  S
Fe2          O13   2.038       .  S
Fe2          O18   2.085       .  S
Fe2          O12   1.949       .  S
Fe3          O21   2.080       .  S
Fe3           O8   2.048       .  S
Fe3          O15   2.035       .  S
Fe3           O4   2.071       .  S
Fe3          O12   1.950       .  S
O4           C11   1.266       .  A
O5           C19   1.263       .  A
O6           C11   1.265       .  A
O7           C10   1.283       .  A
O8           C20   1.271       .  A
O9           C22   1.272       .  A
C10          O15   1.270       .  A
C10        C1355   1.477       .  S
C11        C1387   1.474       .  S
O13          C16   1.266       .  A
O14          C16   1.275       .  A
C16        C1277   1.478       .  S
O17          C22   1.269       .  A
O18          C20   1.275       .  A
C19          O21   1.268       .  A
C19        C1299   1.477       .  S
C20        C1333   1.465       .  S
C22        C1365   1.477       .  S
Fe23         O39   2.116       .  S
Fe23         O29   2.054       .  S
Fe23         O36   2.074       .  S
Fe23         O28   2.099       .  S
Fe23         O34   1.967       .  S
Fe24         O27   2.074       .  S
Fe24         O31   2.048       .  S
Fe24         O35   2.069       .  S
Fe24         O40   2.052       .  S
Fe24         O34   1.947       .  S
Fe25         O43   2.060       .  S
Fe25         O30   2.089       .  S
Fe25         O37   2.080       .  S
Fe25         O26   2.045       .  S
Fe25         O34   1.957       .  S
O26          C33   1.265       .  A
O27          C41   1.267       .  A
O28          C33   1.273       .  A
O29          C32   1.270       .  A
O30          C42   1.278       .  A
O31          C44   1.272       .  A
C32          O37   1.275       .  A
C32        C1399   1.476       .  S
C33        C1201   1.479       .  S
O35          C38   1.267       .  A
O36          C38   1.267       .  A
C38        C1377   1.480       .  S
O39          C44   1.282       .  A
O40          C42   1.273       .  A
C41          O43   1.263       .  A
C41        C1233   1.487       .  S
C42        C1255   1.469       .  S
C44        C1223   1.483       .  S
Fe45         O61   2.046       .  S
Fe45         O51   2.124       .  S
Fe45         O58   2.105   1_655  S
Fe45         O50   2.065       .  S
Fe45         O56   1.965       .  S
Fe46         O49   2.055       .  S
Fe46         O53   2.078       .  S
Fe46         O57   2.050       .  S
Fe46         O62   2.094       .  S
Fe46         O56   1.953       .  S
Fe47         O65   2.077       .  S
Fe47         O52   2.048       .  S
Fe47         O59   2.040       .  S
Fe47         O48   2.066       .  S
Fe47         O56   1.945       .  S
O48          C55   1.268       .  A
O49          C63   1.264       .  A
O50          C55   1.267       .  A
O51          C54   1.281       .  A
O52          C64   1.270       .  A
O53          C66   1.274       .  A
C54          O59   1.269       .  A
C54        C1245   1.483       .  S
C55        C1167   1.474       .  S
O57          C60   1.266   1_655  A
O58          C60   1.275       .  A
C60        C1091   1.481       .  S
O61          C66   1.269       .  A
O62          C64   1.277       .  A
C63          O65   1.268       .  A
C63        C1113   1.484       .  S
C64        C1123   1.467       .  S
C66        C1157   1.465       .  S
Fe67         O83   2.109       .  S
Fe67         O73   2.049       .  S
Fe67         O80   2.061       .  S
Fe67         O72   2.092   1_655  S
Fe67         O78   1.962       .  S
Fe68         O71   2.071       .  S
Fe68         O75   2.038       .  S
Fe68         O79   2.060       .  S
Fe68         O84   2.048       .  S
Fe68         O78   1.946       .  S
Fe69         O87   2.052       .  S
Fe69         O74   2.090       .  S
Fe69         O81   2.077       .  S
Fe69         O70   2.042       .  S
Fe69         O78   1.950       .  S
O70          C77   1.266   1_655  A
O71          C85   1.266       .  A
O72          C77   1.273       .  A
O73          C76   1.267       .  A
O74          C86   1.276       .  A
O75          C88   1.271       .  A
C76          O81   1.273       .  A
C76        C1179   1.469       .  S
C77        C1035   1.473       .  S
O79          C82   1.265       .  A
O80          C82   1.264       .  A
C82        C1145   1.471       .  S
O83          C88   1.282       .  A
O84          C86   1.271       .  A
C85          O87   1.264       .  A
C85        C1343   1.476       .  S
C86        C1267   1.464       .  S
C88        C1057   1.476       .  S
Fe89        O105   2.118   1_565  S
Fe89         O95   2.066       .  S
Fe89        O102   2.079       .  S
Fe89         O94   2.107       .  S
Fe89        O100   1.968   1_565  S
Fe90         O93   2.067       .  S
Fe90         O97   2.038       .  S
Fe90        O101   2.063       .  S
Fe90        O106   2.048       .  S
Fe90        O100   1.949       .  S
Fe91        O109   2.055       .  S
Fe91         O96   2.096       .  S
Fe91        O103   2.087       .  S
Fe91         O92   2.044   1_545  S
Fe91        O100   1.959       .  S
O92          C99   1.265       .  A
O93         C107   1.265       .  A
O94          C99   1.275       .  A
O95          C98   1.272       .  A
O96         C108   1.278       .  A
O97         C110   1.269       .  A
C98         O103   1.276   1_565  A
C98        C1013   1.487       .  S
C99         C925   1.478       .  S
O101        C104   1.266       .  A
O102        C104   1.268   1_565  A
C104        C991   1.483       .  S
O105        C110   1.282       .  A
O106        C108   1.272       .  A
C107        O109   1.264       .  A
C107        C959   1.472       .  S
C108        C969   1.471       .  S
C110       C1101   1.479       .  S
Fe111       O127   2.060       .  S
Fe111       O117   2.108   1_565  S
Fe111       O124   2.094       .  S
Fe111       O116   2.073       .  S
Fe111       O122   1.968   1_565  S
Fe112       O115   2.046       .  S
Fe112       O119   2.084       .  S
Fe112       O123   2.043   1_545  S
Fe112       O128   2.093       .  S
Fe112       O122   1.956       .  S
Fe113       O131   2.077       .  S
Fe113       O118   2.052       .  S
Fe113       O125   2.044       .  S
Fe113       O114   2.074       .  S
Fe113       O122   1.952       .  S
O114        C121   1.268       .  A
O115        C129   1.263       .  A
O116        C121   1.267   1_565  A
O117        C120   1.280       .  A
O118        C130   1.272       .  A
O119        C132   1.274   1_545  A
C120        O125   1.270       .  A
C120        C915   1.480       .  S
C121       C1025   1.476   1_545  S
O123        C126   1.266       .  A
O124        C126   1.272       .  A
C126        C881   1.476       .  S
O127        C132   1.270       .  A
O128        C130   1.277       .  A
C129        O131   1.268       .  A
C129       C1069   1.477       .  S
C130       C1135   1.473       .  S
C132       C1003   1.477       .  S
Fe133       O149   2.105       .  S
Fe133       O139   2.055       .  S
Fe133       O146   2.065       .  S
Fe133       O138   2.098       .  S
Fe133       O144   1.962       .  S
Fe134       O137   2.080       .  S
Fe134       O141   2.047       .  S
Fe134       O145   2.081       .  S
Fe134       O150   2.055       .  S
Fe134       O144   1.955       .  S
Fe135       O153   2.050       .  S
Fe135       O140   2.094       .  S
Fe135       O147   2.092       .  S
Fe135       O136   2.048       .  S
Fe135       O144   1.953       .  S
O136        C143   1.265       .  A
O137        C151   1.268       .  A
O138        C143   1.272       .  A
O139        C142   1.270       .  A
O140        C152   1.278       .  A
O141        C154   1.270       .  A
C142        O147   1.276       .  A
C142        C859   1.481       .  S
C143        C827   1.478       .  S
O145        C148   1.268       .  A
O146        C148   1.267       .  A
C148        C837   1.472       .  S
O149        C154   1.280       .  A
O150        C152   1.272       .  A
C151        O153   1.264       .  A
C151        C903   1.481       .  S
C152        C981   1.469       .  S
C154       C1311   1.479       .  S
Fe155       O171   2.053       .  S
Fe155       O161   2.115       .  S
Fe155       O168   2.101       .  S
Fe155       O160   2.073       .  S
Fe155       O166   1.960       .  S
Fe156       O159   2.055       .  S
Fe156       O163   2.085       .  S
Fe156       O167   2.043       .  S
Fe156       O172   2.088       .  S
Fe156       O166   1.956       .  S
Fe157       O175   2.082       .  S
Fe157       O162   2.045       .  S
Fe157       O169   2.039       .  S
Fe157       O158   2.075       .  S
Fe157       O166   1.949       .  S
O158        C165   1.266       .  A
O159        C173   1.264       .  A
O160        C165   1.266       .  A
O161        C164   1.283       .  A
O162        C174   1.271       .  A
O163        C176   1.274       .  A
C164        O169   1.271       .  A
C164        C947   1.485       .  S
C165        C871   1.480       .  S
O167        C170   1.265       .  A
O168        C170   1.274       .  A
C170        C793   1.477       .  S
O171        C176   1.270       .  A
O172        C174   1.277       .  A
C173        O175   1.268       .  A
C173       C1211   1.485       .  S
C174       C1321   1.463       .  S
C176        C849   1.482       .  S
Fe177       O193   2.122       .  S
Fe177       O183   2.050       .  S
Fe177       O190   2.066       .  S
Fe177       O182   2.107   1_565  S
Fe177       O188   1.966       .  S
Fe178       O181   2.080       .  S
Fe178       O185   2.046       .  S
Fe178       O189   2.075       .  S
Fe178       O194   2.053       .  S
Fe178       O188   1.950       .  S
Fe179       O197   2.051       .  S
Fe179       O184   2.101       .  S
Fe179       O191   2.097       .  S
Fe179       O180   2.046   1_565  S
Fe179       O188   1.954       .  S
O180        C187   1.265       .  A
O181        C195   1.268       .  A
O182        C187   1.274       .  A
O183        C186   1.269       .  A
O184        C196   1.280       .  A
O185        C198   1.271       .  A
C186        O191   1.278       .  A
C186        C739   1.482       .  S
C187       C1079   1.481       .  S
O189        C192   1.267       .  A
O190        C192   1.265       .  A
C192        C749   1.470       .  S
O193        C198   1.283       .  A
O194        C196   1.273       .  A
C195        O197   1.264       .  A
C195        C695   1.480       .  S
C196        C705   1.474       .  S
C198        C783   1.484       .  S
Fe199       O215   2.056       .  S
Fe199       O205   2.124       .  S
Fe199       O212   2.107   1_565  S
Fe199       O204   2.075       .  S
Fe199       O210   1.961       .  S
Fe200       O203   2.061       .  S
Fe200       O207   2.083       .  S
Fe200       O211   2.048       .  S
Fe200       O216   2.094       .  S
Fe200       O210   1.957       .  S
Fe201       O219   2.070       .  S
Fe201       O206   2.048       .  S
Fe201       O213   2.042       .  S
Fe201       O202   2.070       .  S
Fe201       O210   1.945       .  S
O202        C209   1.266       .  A
O203        C217   1.265       .  A
O204        C209   1.267       .  A
O205        C208   1.283       .  A
O206        C218   1.271       .  A
O207        C220   1.275       .  A
C208        O213   1.271       .  A
C208        C617   1.486       .  S
C209        C727   1.476       .  S
O211        C214   1.266   1_565  A
O212        C214   1.276       .  A
C214        C815   1.479       .  S
O215        C220   1.270       .  A
O216        C218   1.277       .  A
C217        O219   1.267       .  A
C217        C639   1.483       .  S
C218        C661   1.468       .  S
C220        C761   1.481       .  S
Fe221       O237   2.109       .  S
Fe221       O227   2.061       .  S
Fe221       O234   2.069       .  S
Fe221       O226   2.097       .  S
Fe221       O232   1.967       .  S
Fe222       O225   2.081       .  S
Fe222       O229   2.044       .  S
Fe222       O233   2.080       .  S
Fe222       O238   2.047       .  S
Fe222       O232   1.949       .  S
Fe223       O241   2.046       .  S
Fe223       O228   2.098       .  S
Fe223       O235   2.089       .  S
Fe223       O224   2.041       .  S
Fe223       O232   1.957       .  S
O224        C231   1.264       .  A
O225        C239   1.268       .  A
O226        C231   1.272       .  A
O227        C230   1.271       .  A
O228        C240   1.278       .  A
O229        C242   1.270       .  A
C230        O235   1.277       .  A
C230        C595   1.481       .  S
C231       C1289   1.479       .  S
O233        C236   1.269       .  A
O234        C236   1.267       .  A
C236        C573   1.481       .  S
O237        C242   1.280       .  A
O238        C240   1.272       .  A
C239        O241   1.261       .  A
C239        C529   1.476       .  S
C240        C563   1.470       .  S
C242        C651   1.477       .  S
Fe243       O259   2.065       .  S
Fe243       O249   2.115       .  S
Fe243       O256   2.101       .  S
Fe243       O248   2.077       .  S
Fe243       O254   1.967       .  S
Fe244       O247   2.055       .  S
Fe244       O251   2.084       .  S
Fe244       O255   2.047       .  S
Fe244       O260   2.094       .  S
Fe244       O254   1.956       .  S
Fe245       O263   2.082       .  S
Fe245       O250   2.046       .  S
Fe245       O257   2.039       .  S
Fe245       O246   2.071       .  S
Fe245       O254   1.950       .  S
O246        C253   1.267       .  A
O247        C261   1.263       .  A
O248        C253   1.267       .  A
O249        C252   1.281       .  A
O250        C262   1.271       .  A
O251        C264   1.275       .  A
C252        O257   1.270       .  A
C252        C507   1.475       .  S
C253        C607   1.481       .  S
O255        C258   1.265       .  A
O256        C258   1.274       .  A
C258        C937   1.478       .  S
O259        C264   1.271       .  A
O260        C262   1.278       .  A
C261        O263   1.268       .  A
C261        C771   1.487       .  S
C262        C673   1.468       .  S
C264        C585   1.481       .  S
Fe265       O281   2.055       .  S
Fe265       O271   2.105   1_655  S
Fe265       O278   2.093       .  S
Fe265       O270   2.067       .  S
Fe265       O276   1.973   1_655  S
Fe266       O269   2.053       .  S
Fe266       O273   2.096       .  S
Fe266       O277   2.048   1_455  S
Fe266       O282   2.097       .  S
Fe266       O276   1.963       .  S
Fe267       O285   2.073       .  S
Fe267       O272   2.061       .  S
Fe267       O279   2.052       .  S
Fe267       O268   2.072       .  S
Fe267       O276   1.958       .  S
O268        C275   1.267       .  A
O269        C283   1.263       .  A
O270        C275   1.267   1_655  A
O271        C274   1.279       .  A
O272        C284   1.274       .  A
O273        C286   1.278   1_455  A
C274        O279   1.271       .  A
C274        C683   1.486       .  S
C275        C485   1.476       .  S
O277        C280   1.265       .  A
O278        C280   1.271       .  A
C280       C1189   1.480       .  S
O281        C286   1.270       .  A
O282        C284   1.279       .  A
C283        O285   1.267       .  A
C283        C419   1.479       .  S
C284        C441   1.479       .  S
C286        C475   1.487       .  S
Fe287       O303   2.107   1_655  S
Fe287       O293   2.055       .  S
Fe287       O300   2.071       .  S
Fe287       O292   2.092       .  S
Fe287       O298   1.969   1_655  S
Fe288       O291   2.079       .  S
Fe288       O295   2.046       .  S
Fe288       O299   2.076       .  S
Fe288       O304   2.054       .  S
Fe288       O298   1.951       .  S
Fe289       O307   2.059       .  S
Fe289       O294   2.096       .  S
Fe289       O301   2.088       .  S
Fe289       O290   2.048   1_455  S
Fe289       O298   1.960       .  S
O290        C297   1.266       .  A
O291        C305   1.268       .  A
O292        C297   1.272       .  A
O293        C296   1.270       .  A
O294        C306   1.278       .  A
O295        C308   1.271       .  A
C296        O301   1.275   1_655  A
C296        C497   1.480       .  S
C297        C893   1.476       .  S
O299        C302   1.267       .  A
O300        C302   1.266   1_655  A
C302        C463   1.477       .  S
O303        C308   1.281       .  A
O304        C306   1.273       .  A
C305        O307   1.264       .  A
C305        C629   1.486       .  S
C306        C717   1.472       .  S
C308        C397   1.482       .  S
Fe309       O325   2.117       .  S
Fe309       O315   2.055       .  S
Fe309       O322   2.078       .  S
Fe309       O314   2.099       .  S
Fe309       O320   1.968       .  S
Fe310       O313   2.074       .  S
Fe310       O317   2.039       .  S
Fe310       O321   2.065       .  S
Fe310       O326   2.043       .  S
Fe310       O320   1.949       .  S
Fe311       O329   2.057       .  S
Fe311       O316   2.104       .  S
Fe311       O323   2.093       .  S
Fe311       O312   2.049       .  S
Fe311       O320   1.962       .  S
O312        C319   1.267       .  A
O313        C327   1.267       .  A
O314        C319   1.275       .  A
O315        C318   1.269       .  A
O316        C328   1.279       .  A
O317        C330   1.271       .  A
C318        O323   1.275       .  A
C318        C387   1.482       .  S
C319        C805   1.477       .  S
O321        C324   1.266       .  A
O322        C324   1.267       .  A
C324        C365   1.486       .  S
O325        C330   1.283       .  A
O326        C328   1.270       .  A
C327        O329   1.264       .  A
C327        C519   1.484       .  S
C328        C551   1.469       .  S
C330        C431   1.485       .  S
Fe331       O347   2.063       .  S
Fe331       O337   2.112       .  S
Fe331       O344   2.097       .  S
Fe331       O336   2.073       .  S
Fe331       O342   1.969       .  S
Fe332       O335   2.050       .  S
Fe332       O339   2.090       .  S
Fe332       O343   2.040       .  S
Fe332       O348   2.103       .  S
Fe332       O342   1.957       .  S
Fe333       O351   2.081       .  S
Fe333       O338   2.051       .  S
Fe333       O345   2.040       .  S
Fe333       O334   2.071       .  S
Fe333       O342   1.951       .  S
O334        C341   1.267       .  A
O335        C349   1.263       .  A
O336        C341   1.267       .  A
O337        C340   1.282       .  A
O338        C350   1.271       .  A
O339        C352   1.275       .  A
C340        O345   1.271       .  A
C340        C541   1.485       .  S
C341        C375   1.478       .  S
O343        C346   1.266       .  A
O344        C346   1.273       .  A
C346       C1047   1.474       .  S
O347        C352   1.270       .  A
O348        C350   1.278       .  A
C349        O351   1.268       .  A
C349        C409   1.479       .  S
C350        C453   1.472       .  S
C352        C353   1.478       .  S
C353        C354   1.402       .  A
C353        C358   1.397       .  A
C354        C355   1.404       .  A
C354        H367   1.083       .  S
C355        C356   1.417       .  A
C355        H368   1.080       .  S
C356        C362   1.436       .  A
C356        C357   1.425       .  A
C357        C359   1.397       .  A
C357        C358   1.404       .  A
C358        H369   1.086       .  S
C359        C360   1.386       .  A
C359        H370   1.084       .  S
C360        C361   1.398       .  A
C360        H371   1.084       .  S
C361        C362   1.422       .  A
C361        C366   1.401       .  A
C362        C363   1.419       .  A
C363        C364   1.407       .  A
C363        H372   1.080       .  S
C364        C365   1.403       .  A
C364        H373   1.083       .  S
C365        C366   1.401       .  A
C366        H374   1.086       .  S
C375        C376   1.398   1_556  A
C375        C380   1.402       .  A
C376        C377   1.402       .  A
C376        H389   1.084   1_554  S
C377        C378   1.419       .  A
C377        H390   1.075       .  S
C378        C384   1.433       .  A
C378        C379   1.421       .  A
C379        C381   1.400       .  A
C379        C380   1.404   1_554  A
C380        H391   1.084       .  S
C381        C382   1.390       .  A
C381        H392   1.084       .  S
C382        C383   1.399       .  A
C382        H393   1.083       .  S
C383        C384   1.425       .  A
C383        C388   1.409       .  A
C384        C385   1.414       .  A
C385        C386   1.398       .  A
C385        H394   1.075       .  S
C386        C387   1.402       .  A
C386        H395   1.084       .  S
C387        C388   1.401       .  A
C388        H396   1.084       .  S
C397        C398   1.400       .  A
C397        C402   1.403       .  A
C398        C399   1.399       .  A
C398        H411   1.083       .  S
C399        C400   1.416       .  A
C399        H412   1.078       .  S
C400        C406   1.430       .  A
C400        C401   1.421       .  A
C401        C403   1.400       .  A
C401        C402   1.404       .  A
C402        H413   1.085       .  S
C403        C404   1.390       .  A
C403        H414   1.084       .  S
C404        C405   1.399       .  A
C404        H415   1.084       .  S
C405        C406   1.423       .  A
C405        C410   1.407       .  A
C406        C407   1.413       .  A
C407        C408   1.397       .  A
C407        H416   1.078       .  S
C408        C409   1.402       .  A
C408        H417   1.083       .  S
C409        C410   1.401       .  A
C410        H418   1.085       .  S
C419        C420   1.399       .  A
C419        C424   1.403       .  A
C420        C421   1.399       .  A
C420        H433   1.083       .  S
C421        C422   1.417       .  A
C421        H434   1.077       .  S
C422        C428   1.432       .  A
C422        C423   1.421       .  A
C423        C425   1.400       .  A
C423        C424   1.405       .  A
C424        H435   1.085       .  S
C425        C426   1.391       .  A
C425        H436   1.084       .  S
C426        C427   1.399       .  A
C426        H437   1.084       .  S
C427        C428   1.424       .  A
C427        C432   1.410       .  A
C428        C429   1.412       .  A
C429        C430   1.394       .  A
C429        H438   1.077       .  S
C430        C431   1.404       .  A
C430        H439   1.083       .  S
C431        C432   1.402       .  A
C432        H440   1.084       .  S
C441        C442   1.400       .  A
C441        C446   1.401       .  A
C442        C443   1.400       .  A
C442        H455   1.083       .  S
C443        C444   1.416       .  A
C443        H456   1.078       .  S
C444        C450   1.431       .  A
C444        C445   1.422       .  A
C445        C447   1.399   1_554  A
C445        C446   1.405       .  A
C446        H457   1.085       .  S
C447        C448   1.390       .  A
C447        H458   1.084       .  S
C448        C449   1.399       .  A
C448        H459   1.084       .  S
C449        C450   1.424   1_556  A
C449        C454   1.406       .  A
C450        C451   1.416       .  A
C451        C452   1.398   1_554  A
C451        H460   1.078       .  S
C452        C453   1.399       .  A
C452        H461   1.084       .  S
C453        C454   1.399       .  A
C454        H462   1.085       .  S
C463        C464   1.400       .  A
C463        C468   1.399   1_455  A
C464        C465   1.397       .  A
C464        H477   1.083       .  S
C465        C466   1.414       .  A
C465        H478   1.079       .  S
C466        C472   1.433   1_455  A
C466        C467   1.425   1_455  A
C467        C469   1.399       .  A
C467        C468   1.410       .  A
C468        H479   1.085       .  S
C469        C470   1.391       .  A
C469        H480   1.084       .  S
C470        C471   1.400       .  A
C470        H481   1.084       .  S
C471        C472   1.421       .  A
C471        C476   1.406       .  A
C472        C473   1.417   1_655  A
C473        C474   1.401       .  A
C473        H482   1.079       .  S
C474        C475   1.401   1_455  A
C474        H483   1.083       .  S
C475        C476   1.405       .  A
C476        H484   1.085       .  S
C485        C486   1.399   1_455  A
C485        C490   1.401       .  A
C486        C487   1.400       .  A
C486        H499   1.084       .  S
C487        C488   1.418   1_554  A
C487        H500   1.076   1_554  S
C488        C494   1.431       .  A
C488        C489   1.422   1_656  A
C489        C491   1.399       .  A
C489        C490   1.403       .  A
C490        H501   1.084       .  S
C491        C492   1.389   1_554  A
C491        H502   1.084       .  S
C492        C493   1.399       .  A
C492        H503   1.084       .  S
C493        C494   1.424   1_455  A
C493        C498   1.406       .  A
C494        C495   1.415       .  A
C495        C496   1.398       .  A
C495        H504   1.075       .  S
C496        C497   1.401       .  A
C496        H505   1.084       .  S
C497        C498   1.400   1_655  A
C498        H506   1.084       .  S
C507        C508   1.399       .  A
C507        C512   1.401       .  A
C508        C509   1.393       .  A
C508        H521   1.084       .  S
C509        C510   1.414       .  A
C509        H522   1.076       .  S
C510        C516   1.430       .  A
C510        C511   1.424       .  A
C511        C513   1.400       .  A
C511        C512   1.409       .  A
C512        H523   1.084       .  S
C513        C514   1.392       .  A
C513        H524   1.084       .  S
C514        C515   1.401       .  A
C514        H525   1.084       .  S
C515        C516   1.422       .  A
C515        C520   1.408       .  A
C516        C517   1.415       .  A
C517        C518   1.395       .  A
C517        H526   1.076       .  S
C518        C519   1.401       .  A
C518        H527   1.083       .  S
C519        C520   1.405       .  A
C520        H528   1.084       .  S
C529        C530   1.401       .  A
C529        C534   1.399       .  A
C530        C531   1.397       .  A
C530        H543   1.084       .  S
C531        C532   1.413       .  A
C531        H544   1.078       .  S
C532        C538   1.431       .  A
C532        C533   1.424       .  A
C533        C535   1.398       .  A
C533        C534   1.406       .  A
C534        H545   1.084       .  S
C535        C536   1.389       .  A
C535        H546   1.084       .  S
C536        C537   1.400       .  A
C536        H547   1.084       .  S
C537        C538   1.420       .  A
C537        C542   1.402       .  A
C538        C539   1.417       .  A
C539        C540   1.400       .  A
C539        H548   1.078       .  S
C540        C541   1.401       .  A
C540        H549   1.083       .  S
C541        C542   1.404       .  A
C542        H550   1.084       .  S
C551        C552   1.399       .  A
C551        C556   1.397       .  A
C552        C553   1.396       .  A
C552        H565   1.083       .  S
C553        C554   1.414       .  A
C553        H566   1.079       .  S
C554        C560   1.429       .  A
C554        C555   1.425       .  A
C555        C557   1.399       .  A
C555        C556   1.404       .  A
C556        H567   1.086       .  S
C557        C558   1.388       .  A
C557        H568   1.084       .  S
C558        C559   1.399       .  A
C558        H569   1.084       .  S
C559        C560   1.421       .  A
C559        C564   1.400       .  A
C560        C561   1.417       .  A
C561        C562   1.399       .  A
C561        H570   1.079       .  S
C562        C563   1.398       .  A
C562        H571   1.084       .  S
C563        C564   1.398       .  A
C564        H572   1.085       .  S
C573        C574   1.401       .  A
C573        C578   1.402       .  A
C574        C575   1.396       .  A
C574        H587   1.084       .  S
C575        C576   1.414       .  A
C575        H588   1.076       .  S
C576        C582   1.431       .  A
C576        C577   1.423       .  A
C577        C579   1.400       .  A
C577        C578   1.410       .  A
C578        H589   1.084       .  S
C579        C580   1.393       .  A
C579        H590   1.084       .  S
C580        C581   1.401       .  A
C580        H591   1.083       .  S
C581        C582   1.421       .  A
C581        C586   1.408       .  A
C582        C583   1.415       .  A
C583        C584   1.398       .  A
C583        H592   1.076       .  S
C584        C585   1.400       .  A
C584        H593   1.084       .  S
C585        C586   1.404       .  A
C586        H594   1.084       .  S
C595        C596   1.402       .  A
C595        C600   1.399       .  A
C596        C597   1.402       .  A
C596        H609   1.084       .  S
C597        C598   1.416       .  A
C597        H610   1.077       .  S
C598        C604   1.434       .  A
C598        C599   1.424       .  A
C599        C601   1.398       .  A
C599        C600   1.405       .  A
C600        H611   1.084       .  S
C601        C602   1.388       .  A
C601        H612   1.084       .  S
C602        C603   1.399   1_556  A
C602        H613   1.084   1_556  S
C603        C604   1.422   1_554  A
C603        C608   1.403       .  A
C604        C605   1.419   1_556  A
C605        C606   1.404       .  A
C605        H614   1.077   1_554  S
C606        C607   1.400       .  A
C606        H615   1.084       .  S
C607        C608   1.401       .  A
C608        H616   1.084       .  S
C617        C618   1.402       .  A
C617        C622   1.403       .  A
C618        C619   1.395       .  A
C618        H631   1.083       .  S
C619        C620   1.413       .  A
C619        H632   1.078       .  S
C620        C626   1.433       .  A
C620        C621   1.424       .  A
C621        C623   1.400       .  A
C621        C622   1.412       .  A
C622        H633   1.085       .  S
C623        C624   1.393       .  A
C623        H634   1.084       .  S
C624        C625   1.401       .  A
C624        H635   1.084       .  S
C625        C626   1.422       .  A
C625        C630   1.410       .  A
C626        C627   1.416       .  A
C627        C628   1.397       .  A
C627        H636   1.079       .  S
C628        C629   1.401       .  A
C628        H637   1.083       .  S
C629        C630   1.405       .  A
C630        H638   1.085       .  S
C639        C640   1.402       .  A
C639        C644   1.401       .  A
C640        C641   1.401       .  A
C640        H653   1.083       .  S
C641        C642   1.416       .  A
C641        H654   1.078       .  S
C642        C648   1.432       .  A
C642        C643   1.422       .  A
C643        C645   1.399       .  A
C643        C644   1.402       .  A
C644        H655   1.085       .  S
C645        C646   1.387       .  A
C645        H656   1.084       .  S
C646        C647   1.398       .  A
C646        H657   1.084       .  S
C647        C648   1.423       .  A
C647        C652   1.402       .  A
C648        C649   1.417       .  A
C649        C650   1.401       .  A
C649        H658   1.078       .  S
C650        C651   1.400       .  A
C650        H659   1.083       .  S
C651        C652   1.399       .  A
C652        H660   1.085       .  S
C661        C662   1.398       .  A
C661        C666   1.398       .  A
C662        C663   1.397       .  A
C662        H675   1.084       .  S
C663        C664   1.416   1_556  A
C663        H676   1.077       .  S
C664        C670   1.427       .  A
C664        C665   1.422       .  A
C665        C667   1.398       .  A
C665        C666   1.401   1_554  A
C666        H677   1.085       .  S
C667        C668   1.388       .  A
C667        H678   1.084       .  S
C668        C669   1.399       .  A
C668        H679   1.084       .  S
C669        C670   1.424       .  A
C669        C674   1.403       .  A
C670        C671   1.415       .  A
C671        C672   1.395       .  A
C671        H680   1.077   1_554  S
C672        C673   1.399       .  A
C672        H681   1.084       .  S
C673        C674   1.397       .  A
C674        H682   1.085       .  S
C683        C684   1.402       .  A
C683        C688   1.403       .  A
C684        C685   1.402       .  A
C684        H697   1.084       .  S
C685        C686   1.417       .  A
C685        H698   1.077       .  S
C686        C692   1.433       .  A
C686        C687   1.421       .  A
C687        C689   1.400       .  A
C687        C688   1.404       .  A
C688        H699   1.084       .  S
C689        C690   1.389       .  A
C689        H700   1.084       .  S
C690        C691   1.398       .  A
C690        H701   1.083       .  S
C691        C692   1.424       .  A
C691        C696   1.407       .  A
C692        C693   1.415       .  A
C693        C694   1.399       .  A
C693        H702   1.076       .  S
C694        C695   1.402       .  A
C694        H703   1.084       .  S
C695        C696   1.399       .  A
C696        H704   1.084       .  S
C705        C706   1.399       .  A
C705        C710   1.401       .  A
C706        C707   1.397       .  A
C706        H719   1.084       .  S
C707        C708   1.415       .  A
C707        H720   1.079       .  S
C708        C714   1.429       .  A
C708        C709   1.422       .  A
C709        C711   1.399       .  A
C709        C710   1.405       .  A
C710        H721   1.085       .  S
C711        C712   1.390       .  A
C711        H722   1.084       .  S
C712        C713   1.400       .  A
C712        H723   1.084       .  S
C713        C714   1.423       .  A
C713        C718   1.405       .  A
C714        C715   1.415       .  A
C715        C716   1.396       .  A
C715        H724   1.079       .  S
C716        C717   1.399       .  A
C716        H725   1.083       .  S
C717        C718   1.399       .  A
C718        H726   1.086       .  S
C727        C728   1.400       .  A
C727        C732   1.399   1_556  A
C728        C729   1.396   1_556  A
C728        H741   1.084       .  S
C729        C730   1.414       .  A
C729        H742   1.076       .  S
C730        C736   1.432       .  A
C730        C731   1.425       .  A
C731        C733   1.399   1_565  A
C731        C732   1.409       .  A
C732        H743   1.084   1_565  S
C733        C734   1.391       .  A
C733        H744   1.083       .  S
C734        C735   1.400   1_545  A
C734        H745   1.084       .  S
C735        C736   1.421       .  A
C735        C740   1.405       .  A
C736        C737   1.417       .  A
C737        C738   1.400       .  A
C737        H746   1.077       .  S
C738        C739   1.400       .  A
C738        H747   1.083       .  S
C739        C740   1.404       .  A
C740        H748   1.085   1_565  S
C749        C750   1.397       .  A
C749        C754   1.399       .  A
C750        C751   1.394       .  A
C750        H763   1.084       .  S
C751        C752   1.414       .  A
C751        H764   1.074       .  S
C752        C758   1.429       .  A
C752        C753   1.424       .  A
C753        C755   1.400   1_565  A
C753        C754   1.408       .  A
C754        H765   1.084   1_565  S
C755        C756   1.392       .  A
C755        H766   1.084       .  S
C756        C757   1.400   1_545  A
C756        H767   1.084       .  S
C757        C758   1.421       .  A
C757        C762   1.406       .  A
C758        C759   1.415       .  A
C759        C760   1.396       .  A
C759        H768   1.074       .  S
C760        C761   1.400       .  A
C760        H769   1.084       .  S
C761        C762   1.404       .  A
C762        H770   1.083   1_565  S
C771        C772   1.401       .  A
C771        C776   1.404       .  A
C772        C773   1.400       .  A
C772        H785   1.084       .  S
C773        C774   1.417       .  A
C773        H786   1.076       .  S
C774        C780   1.434       .  A
C774        C775   1.421       .  A
C775        C777   1.400       .  A
C775        C776   1.407       .  A
C776        H787   1.084       .  S
C777        C778   1.392       .  A
C777        H788   1.084       .  S
C778        C779   1.400       .  A
C778        H789   1.083       .  S
C779        C780   1.424       .  A
C779        C784   1.411       .  A
C780        C781   1.414       .  A
C781        C782   1.397       .  A
C781        H790   1.076       .  S
C782        C783   1.402       .  A
C782        H791   1.084       .  S
C783        C784   1.402       .  A
C784        H792   1.084       .  S
C793        C794   1.400       .  A
C793        C798   1.399       .  A
C794        C795   1.406       .  A
C794        H807   1.083       .  S
C795        C796   1.419       .  A
C795        H808   1.077       .  S
C796        C802   1.436       .  A
C796        C797   1.423       .  A
C797        C799   1.398       .  A
C797        C798   1.402       .  A
C798        H809   1.085       .  S
C799        C800   1.387       .  A
C799        H810   1.084       .  S
C800        C801   1.398       .  A
C800        H811   1.084       .  S
C801        C802   1.423       .  A
C801        C806   1.402       .  A
C802        C803   1.419       .  A
C803        C804   1.406       .  A
C803        H812   1.078       .  S
C804        C805   1.400       .  A
C804        H813   1.083       .  S
C805        C806   1.398       .  A
C806        H814   1.086       .  S
C815        C816   1.401       .  A
C815        C820   1.398       .  A
C816        C817   1.406       .  A
C816        H829   1.083       .  S
C817        C818   1.418       .  A
C817        H830   1.079       .  S
C818        C824   1.437       .  A
C818        C819   1.424       .  A
C819        C821   1.398       .  A
C819        C820   1.404       .  A
C820        H831   1.086       .  S
C821        C822   1.387       .  A
C821        H832   1.084       .  S
C822        C823   1.398       .  A
C822        H833   1.084       .  S
C823        C824   1.423       .  A
C823        C828   1.402       .  A
C824        C825   1.419       .  A
C825        C826   1.406       .  A
C825        H834   1.079       .  S
C826        C827   1.401       .  A
C826        H835   1.083       .  S
C827        C828   1.398       .  A
C828        H836   1.086       .  S
C837        C838   1.396   1_556  A
C837        C842   1.401       .  A
C838        C839   1.396       .  A
C838        H851   1.083   1_554  S
C839        C840   1.416       .  A
C839        H852   1.083       .  S
C840        C846   1.430       .  A
C840        C841   1.423       .  A
C841        C843   1.401       .  A
C841        C842   1.407   1_554  A
C842        H853   1.087       .  S
C843        C844   1.392       .  A
C843        H854   1.085       .  S
C844        C845   1.400       .  A
C844        H855   1.085       .  S
C845        C846   1.424       .  A
C845        C850   1.408       .  A
C846        C847   1.413       .  A
C847        C848   1.393       .  A
C847        H856   1.083       .  S
C848        C849   1.401       .  A
C848        H857   1.082       .  S
C849        C850   1.402       .  A
C850        H858   1.086       .  S
C859        C860   1.400       .  A
C859        C864   1.403       .  A
C860        C861   1.399       .  A
C860        H873   1.083       .  S
C861        C862   1.416       .  A
C861        H874   1.079       .  S
C862        C868   1.432       .  A
C862        C863   1.421       .  A
C863        C865   1.400       .  A
C863        C864   1.407       .  A
C864        H875   1.085       .  S
C865        C866   1.392       .  A
C865        H876   1.084       .  S
C866        C867   1.400       .  A
C866        H877   1.084       .  S
C867        C868   1.424       .  A
C867        C872   1.410       .  A
C868        C869   1.414       .  A
C869        C870   1.397       .  A
C869        H878   1.079       .  S
C870        C871   1.401       .  A
C870        H879   1.084       .  S
C871        C872   1.401       .  A
C872        H880   1.085       .  S
C881        C882   1.400       .  A
C881        C886   1.398       .  A
C882        C883   1.405       .  A
C882        H895   1.083       .  S
C883        C884   1.419       .  A
C883        H896   1.078       .  S
C884        C890   1.434       .  A
C884        C885   1.423       .  A
C885        C887   1.397       .  A
C885        C886   1.399       .  A
C886        H897   1.085       .  S
C887        C888   1.385       .  A
C887        H898   1.084       .  S
C888        C889   1.397       .  A
C888        H899   1.084       .  S
C889        C890   1.423       .  A
C889        C894   1.399       .  A
C890        C891   1.419       .  A
C891        C892   1.406       .  A
C891        H900   1.078       .  S
C892        C893   1.400       .  A
C892        H901   1.083       .  S
C893        C894   1.398       .  A
C894        H902   1.085       .  S
C903        C904   1.402       .  A
C903        C908   1.401       .  A
C904        C905   1.397       .  A
C904        H917   1.084       .  S
C905        C906   1.414       .  A
C905        H918   1.076       .  S
C906        C912   1.431       .  A
C906        C907   1.423       .  A
C907        C909   1.399       .  A
C907        C908   1.406       .  A
C908        H919   1.084       .  S
C909        C910   1.390       .  A
C909        H920   1.084       .  S
C910        C911   1.400       .  A
C910        H921   1.084       .  S
C911        C912   1.421       .  A
C911        C916   1.404       .  A
C912        C913   1.417       .  A
C913        C914   1.400       .  A
C913        H922   1.076       .  S
C914        C915   1.400       .  A
C914        H923   1.084       .  S
C915        C916   1.403       .  A
C916        H924   1.084       .  S
C925        C926   1.399       .  A
C925        C930   1.402       .  A
C926        C927   1.396       .  A
C926        H939   1.084       .  S
C927        C928   1.415       .  A
C927        H940   1.078       .  S
C928        C934   1.434       .  A
C928        C929   1.424       .  A
C929        C931   1.401       .  A
C929        C930   1.413       .  A
C930        H941   1.085       .  S
C931        C932   1.394       .  A
C931        H942   1.084       .  S
C932        C933   1.401       .  A
C932        H943   1.084       .  S
C933        C934   1.424       .  A
C933        C938   1.413       .  A
C934        C935   1.415       .  A
C935        C936   1.396       .  A
C935        H944   1.078       .  S
C936        C937   1.399       .  A
C936        H945   1.084       .  S
C937        C938   1.402       .  A
C938        H946   1.084       .  S
C947        C948   1.404       .  A
C947        C952   1.402       .  A
C948        C949   1.394       .  A
C948        H961   1.083       .  S
C949        C950   1.412       .  A
C949        H962   1.079       .  S
C950        C956   1.430       .  A
C950        C951   1.424       .  A
C951        C953   1.399       .  A
C951        C952   1.408       .  A
C952        H963   1.085       .  S
C953        C954   1.390       .  A
C953        H964   1.084       .  S
C954        C955   1.400       .  A
C954        H965   1.084       .  S
C955        C956   1.422       .  A
C955        C960   1.404       .  A
C956        C957   1.417       .  A
C957        C958   1.397       .  A
C957        H966   1.079       .  S
C958        C959   1.398       .  A
C958        H967   1.083       .  S
C959        C960   1.400       .  A
C960        H968   1.085       .  S
C969        C970   1.399       .  A
C969        C974   1.399       .  A
C970        C971   1.398       .  A
C970        H983   1.084       .  S
C971        C972   1.416       .  A
C971        H984   1.077       .  S
C972        C978   1.429       .  A
C972        C973   1.422       .  A
C973        C975   1.398   1_554  A
C973        C974   1.401       .  A
C974        H985   1.084       .  S
C975        C976   1.388       .  A
C975        H986   1.084       .  S
C976        C977   1.399       .  A
C976        H987   1.084       .  S
C977        C978   1.423   1_556  A
C977        C982   1.402       .  A
C978        C979   1.416       .  A
C979        C980   1.398   1_554  A
C979        H988   1.077       .  S
C980        C981   1.398       .  A
C980        H989   1.084       .  S
C981        C982   1.398       .  A
C982        H990   1.085       .  S
C991        C992   1.403       .  A
C991        C996   1.402   1_545  A
C992        C993   1.393       .  A
C992       H1005   1.084       .  S
C993        C994   1.411   1_544  A
C993       H1006   1.078       .  S
C994       C1000   1.430       .  A
C994        C995   1.424   1_556  A
C995        C997   1.400   1_554  A
C995        C996   1.411       .  A
C996       H1007   1.084       .  S
C997        C998   1.393       .  A
C997       H1008   1.083       .  S
C998        C999   1.401       .  A
C998       H1009   1.084       .  S
C999       C1000   1.421       .  A
C999       C1004   1.407       .  A
C1000      C1001   1.416   1_565  A
C1001      C1002   1.397       .  A
C1001      H1010   1.079       .  S
C1002      C1003   1.399   1_545  A
C1002      H1011   1.083       .  S
C1003      C1004   1.402       .  A
C1004      H1012   1.085       .  S
C1013      C1014   1.401   1_565  A
C1013      C1018   1.406       .  A
C1014      C1015   1.397       .  A
C1014      H1027   1.083       .  S
C1015      C1016   1.415   1_545  A
C1015      H1028   1.078       .  S
C1016      C1022   1.431       .  A
C1016      C1017   1.421       .  A
C1017      C1019   1.401       .  A
C1017      C1018   1.409       .  A
C1018      H1029   1.085       .  S
C1019      C1020   1.394       .  A
C1019      H1030   1.084       .  S
C1020      C1021   1.401       .  A
C1020      H1031   1.084       .  S
C1021      C1022   1.424       .  A
C1021      C1026   1.411       .  A
C1022      C1023   1.414   1_565  A
C1023      C1024   1.395       .  A
C1023      H1032   1.078       .  S
C1024      C1025   1.398   1_545  A
C1024      H1033   1.084       .  S
C1025      C1026   1.401       .  A
C1026      H1034   1.085       .  S
C1035      C1036   1.399       .  A
C1035      C1040   1.397       .  A
C1036      C1037   1.405       .  A
C1036      H1049   1.083       .  S
C1037      C1038   1.419       .  A
C1037      H1050   1.078       .  S
C1038      C1044   1.434       .  A
C1038      C1039   1.423       .  A
C1039      C1041   1.397       .  A
C1039      C1040   1.398       .  A
C1040      H1051   1.086       .  S
C1041      C1042   1.384       .  A
C1041      H1052   1.084       .  S
C1042      C1043   1.397       .  A
C1042      H1053   1.084       .  S
C1043      C1044   1.423       .  A
C1043      C1048   1.398       .  A
C1044      C1045   1.419       .  A
C1045      C1046   1.405       .  A
C1045      H1054   1.079       .  S
C1046      C1047   1.400       .  A
C1046      H1055   1.083       .  S
C1047      C1048   1.397       .  A
C1048      H1056   1.086       .  S
C1057      C1058   1.401       .  A
C1057      C1062   1.400       .  A
C1058      C1059   1.394       .  A
C1058      H1071   1.083       .  S
C1059      C1060   1.413       .  A
C1059      H1072   1.078       .  S
C1060      C1066   1.429       .  A
C1060      C1061   1.424       .  A
C1061      C1063   1.399       .  A
C1061      C1062   1.405       .  A
C1062      H1073   1.085       .  S
C1063      C1064   1.389       .  A
C1063      H1074   1.084       .  S
C1064      C1065   1.400       .  A
C1064      H1075   1.084       .  S
C1065      C1066   1.421       .  A
C1065      C1070   1.403       .  A
C1066      C1067   1.416       .  A
C1067      C1068   1.397       .  A
C1067      H1076   1.078       .  S
C1068      C1069   1.399       .  A
C1068      H1077   1.083       .  S
C1069      C1070   1.402       .  A
C1070      H1078   1.085       .  S
C1079      C1080   1.402       .  A
C1079      C1084   1.398       .  A
C1080      C1081   1.409       .  A
C1080      H1093   1.084       .  S
C1081      C1082   1.420       .  A
C1081      H1094   1.078       .  S
C1082      C1088   1.439       .  A
C1082      C1083   1.423       .  A
C1083      C1085   1.398       .  A
C1083      C1084   1.402       .  A
C1084      H1095   1.085       .  S
C1085      C1086   1.386       .  A
C1085      H1096   1.084       .  S
C1086      C1087   1.397       .  A
C1086      H1097   1.084       .  S
C1087      C1088   1.424       .  A
C1087      C1092   1.403       .  A
C1088      C1089   1.419       .  A
C1089      C1090   1.408       .  A
C1089      H1098   1.078       .  S
C1090      C1091   1.402       .  A
C1090      H1099   1.084       .  S
C1091      C1092   1.398       .  A
C1092      H1100   1.085       .  S
C1101      C1102   1.400       .  A
C1101      C1106   1.402       .  A
C1102      C1103   1.401       .  A
C1102      H1115   1.084       .  S
C1103      C1104   1.418       .  A
C1103      H1116   1.077       .  S
C1104      C1110   1.431       .  A
C1104      C1105   1.421       .  A
C1105      C1107   1.400       .  A
C1105      C1106   1.403       .  A
C1106      H1117   1.084       .  S
C1107      C1108   1.389       .  A
C1107      H1118   1.084       .  S
C1108      C1109   1.399       .  A
C1108      H1119   1.084       .  S
C1109      C1110   1.423       .  A
C1109      C1114   1.405       .  A
C1110      C1111   1.414       .  A
C1111      C1112   1.398       .  A
C1111      H1120   1.077       .  S
C1112      C1113   1.403       .  A
C1112      H1121   1.083       .  S
C1113      C1114   1.402       .  A
C1114      H1122   1.084       .  S
C1123      C1124   1.398       .  A
C1123      C1128   1.398       .  A
C1124      C1125   1.396       .  A
C1124      H1137   1.084       .  S
C1125      C1126   1.415       .  A
C1125      H1138   1.078       .  S
C1126      C1132   1.428       .  A
C1126      C1127   1.424       .  A
C1127      C1129   1.399       .  A
C1127      C1128   1.404       .  A
C1128      H1139   1.086       .  S
C1129      C1130   1.389       .  A
C1129      H1140   1.084       .  S
C1130      C1131   1.399       .  A
C1130      H1141   1.084       .  S
C1131      C1132   1.422       .  A
C1131      C1136   1.403       .  A
C1132      C1133   1.415       .  A
C1133      C1134   1.397       .  A
C1133      H1142   1.078       .  S
C1134      C1135   1.399       .  A
C1134      H1143   1.084       .  S
C1135      C1136   1.400       .  A
C1136      H1144   1.085       .  S
C1145      C1146   1.398       .  A
C1145      C1150   1.399       .  A
C1146      C1147   1.399   1_556  A
C1146      H1159   1.083   1_655  S
C1147      C1148   1.417       .  A
C1147      H1160   1.078   1_655  S
C1148      C1154   1.427       .  A
C1148      C1149   1.421       .  A
C1149      C1151   1.398       .  A
C1149      C1150   1.398   1_554  A
C1150      H1161   1.085       .  S
C1151      C1152   1.386       .  A
C1151      H1162   1.084       .  S
C1152      C1153   1.398       .  A
C1152      H1163   1.084       .  S
C1153      C1154   1.424       .  A
C1153      C1158   1.400       .  A
C1154      C1155   1.415   1_655  A
C1155      C1156   1.396       .  A
C1155      H1164   1.077       .  S
C1156      C1157   1.398   1_455  A
C1156      H1165   1.084       .  S
C1157      C1158   1.396       .  A
C1158      H1166   1.085       .  S
C1167      C1168   1.399       .  A
C1167      C1172   1.400       .  A
C1168      C1169   1.400       .  A
C1168      H1181   1.083   1_655  S
C1169      C1170   1.418       .  A
C1169      H1182   1.077   1_655  S
C1170      C1176   1.429       .  A
C1170      C1171   1.421       .  A
C1171      C1173   1.398       .  A
C1171      C1172   1.398       .  A
C1172      H1183   1.085       .  S
C1173      C1174   1.386       .  A
C1173      H1184   1.084       .  S
C1174      C1175   1.398       .  A
C1174      H1185   1.084       .  S
C1175      C1176   1.424       .  A
C1175      C1180   1.401       .  A
C1176      C1177   1.415       .  A
C1177      C1178   1.397       .  A
C1177      H1186   1.077   1_655  S
C1178      C1179   1.399       .  A
C1178      H1187   1.084   1_655  S
C1179      C1180   1.396       .  A
C1180      H1188   1.085       .  S
C1189      C1190   1.401       .  A
C1189      C1194   1.399       .  A
C1190      C1191   1.407       .  A
C1190      H1203   1.083       .  S
C1191      C1192   1.419       .  A
C1191      H1204   1.079       .  S
C1192      C1198   1.436       .  A
C1192      C1193   1.423       .  A
C1193      C1195   1.398       .  A
C1193      C1194   1.401       .  A
C1194      H1205   1.086       .  S
C1195      C1196   1.386       .  A
C1195      H1206   1.084       .  S
C1196      C1197   1.398       .  A
C1196      H1207   1.084       .  S
C1197      C1198   1.423       .  A
C1197      C1202   1.401       .  A
C1198      C1199   1.419       .  A
C1199      C1200   1.406       .  A
C1199      H1208   1.079       .  S
C1200      C1201   1.401       .  A
C1200      H1209   1.083       .  S
C1201      C1202   1.399       .  A
C1202      H1210   1.086       .  S
C1211      C1212   1.403       .  A
C1211      C1216   1.401       .  A
C1212      C1213   1.400       .  A
C1212      H1225   1.083       .  S
C1213      C1214   1.415       .  A
C1213      H1226   1.078       .  S
C1214      C1220   1.433       .  A
C1214      C1215   1.423       .  A
C1215      C1217   1.399       .  A
C1215      C1216   1.406       .  A
C1216      H1227   1.084       .  S
C1217      C1218   1.389       .  A
C1217      H1228   1.084       .  S
C1218      C1219   1.399       .  A
C1218      H1229   1.084       .  S
C1219      C1220   1.422       .  A
C1219      C1224   1.404       .  A
C1220      C1221   1.417       .  A
C1221      C1222   1.402       .  A
C1221      H1230   1.078       .  S
C1222      C1223   1.401       .  A
C1222      H1231   1.083       .  S
C1223      C1224   1.402       .  A
C1224      H1232   1.085       .  S
C1233      C1234   1.400       .  A
C1233      C1238   1.406       .  A
C1234      C1235   1.396       .  A
C1234      H1247   1.084       .  S
C1235      C1236   1.415       .  A
C1235      H1248   1.074       .  S
C1236      C1242   1.432       .  A
C1236      C1237   1.422       .  A
C1237      C1239   1.402       .  A
C1237      C1238   1.411       .  A
C1238      H1249   1.084       .  S
C1239      C1240   1.394       .  A
C1239      H1250   1.084       .  S
C1240      C1241   1.401       .  A
C1240      H1251   1.084       .  S
C1241      C1242   1.424       .  A
C1241      C1246   1.414       .  A
C1242      C1243   1.413       .  A
C1243      C1244   1.393       .  A
C1243      H1252   1.074       .  S
C1244      C1245   1.400       .  A
C1244      H1253   1.084       .  S
C1245      C1246   1.404       .  A
C1246      H1254   1.084       .  S
C1255      C1256   1.398       .  A
C1255      C1260   1.399       .  A
C1256      C1257   1.395       .  A
C1256      H1269   1.083       .  S
C1257      C1258   1.415       .  A
C1257      H1270   1.078       .  S
C1258      C1264   1.426       .  A
C1258      C1259   1.422       .  A
C1259      C1261   1.399   1_554  A
C1259      C1260   1.401       .  A
C1260      H1271   1.085       .  S
C1261      C1262   1.388       .  A
C1261      H1272   1.084       .  S
C1262      C1263   1.399       .  A
C1262      H1273   1.084       .  S
C1263      C1264   1.423   1_556  A
C1263      C1268   1.401       .  A
C1264      C1265   1.415       .  A
C1265      C1266   1.395   1_554  A
C1265      H1274   1.078       .  S
C1266      C1267   1.397       .  A
C1266      H1275   1.084       .  S
C1267      C1268   1.397       .  A
C1268      H1276   1.086       .  S
C1277      C1278   1.400       .  A
C1277      C1282   1.400       .  A
C1278      C1279   1.406       .  A
C1278      H1291   1.083       .  S
C1279      C1280   1.420       .  A
C1279      H1292   1.078       .  S
C1280      C1286   1.435       .  A
C1280      C1281   1.422       .  A
C1281      C1283   1.398       .  A
C1281      C1282   1.400       .  A
C1282      H1293   1.086       .  S
C1283      C1284   1.386       .  A
C1283      H1294   1.084       .  S
C1284      C1285   1.398       .  A
C1284      H1295   1.084       .  S
C1285      C1286   1.423       .  A
C1285      C1290   1.401       .  A
C1286      C1287   1.418       .  A
C1287      C1288   1.405       .  A
C1287      H1296   1.077       .  S
C1288      C1289   1.400       .  A
C1288      H1297   1.083       .  S
C1289      C1290   1.400       .  A
C1290      H1298   1.085       .  S
C1299      C1300   1.400       .  A
C1299      C1304   1.402       .  A
C1300      C1301   1.394       .  A
C1300      H1313   1.083       .  S
C1301      C1302   1.413       .  A
C1301      H1314   1.078       .  S
C1302      C1308   1.428       .  A
C1302      C1303   1.423       .  A
C1303      C1305   1.400       .  A
C1303      C1304   1.407       .  A
C1304      H1315   1.085       .  S
C1305      C1306   1.392       .  A
C1305      H1316   1.084       .  S
C1306      C1307   1.401       .  A
C1306      H1317   1.084       .  S
C1307      C1308   1.421       .  A
C1307      C1312   1.406       .  A
C1308      C1309   1.415       .  A
C1309      C1310   1.396       .  A
C1309      H1318   1.078       .  S
C1310      C1311   1.399       .  A
C1310      H1319   1.083       .  S
C1311      C1312   1.404       .  A
C1312      H1320   1.085       .  S
C1321      C1322   1.397       .  A
C1321      C1326   1.397       .  A
C1322      C1323   1.393       .  A
C1322      H1335   1.084       .  S
C1323      C1324   1.415       .  A
C1323      H1336   1.077       .  S
C1324      C1330   1.424       .  A
C1324      C1325   1.423       .  A
C1325      C1327   1.399       .  A
C1325      C1326   1.400       .  A
C1326      H1337   1.085       .  S
C1327      C1328   1.388       .  A
C1327      H1338   1.084       .  S
C1328      C1329   1.398       .  A
C1328      H1339   1.084       .  S
C1329      C1330   1.422       .  A
C1329      C1334   1.400       .  A
C1330      C1331   1.414       .  A
C1331      C1332   1.394       .  A
C1331      H1340   1.078       .  S
C1332      C1333   1.398       .  A
C1332      H1341   1.084       .  S
C1333      C1334   1.398       .  A
C1334      H1342   1.085       .  S
C1343      C1344   1.399       .  A
C1343      C1348   1.401       .  A
C1344      C1345   1.396       .  A
C1344      H1357   1.083       .  S
C1345      C1346   1.416       .  A
C1345      H1358   1.079       .  S
C1346      C1352   1.429       .  A
C1346      C1347   1.422       .  A
C1347      C1349   1.400       .  A
C1347      C1348   1.404       .  A
C1348      H1359   1.085       .  S
C1349      C1350   1.390       .  A
C1349      H1360   1.084       .  S
C1350      C1351   1.399       .  A
C1350      H1361   1.084       .  S
C1351      C1352   1.424       .  A
C1351      C1356   1.407       .  A
C1352      C1353   1.412       .  A
C1353      C1354   1.393       .  A
C1353      H1362   1.079       .  S
C1354      C1355   1.401       .  A
C1354      H1363   1.083       .  S
C1355      C1356   1.400       .  A
C1356      H1364   1.085       .  S
C1365      C1366   1.399       .  A
C1365      C1370   1.403       .  A
C1366      C1367   1.394       .  A
C1366      H1379   1.083       .  S
C1367      C1368   1.414       .  A
C1367      H1380   1.079       .  S
C1368      C1374   1.429       .  A
C1368      C1369   1.422       .  A
C1369      C1371   1.401       .  A
C1369      C1370   1.409       .  A
C1370      H1381   1.085       .  S
C1371      C1372   1.394       .  A
C1371      H1382   1.084       .  S
C1372      C1373   1.401       .  A
C1372      H1383   1.084       .  S
C1373      C1374   1.424       .  A
C1373      C1378   1.411   1_556  A
C1374      C1375   1.412   1_556  A
C1375      C1376   1.393       .  A
C1375      H1384   1.079       .  S
C1376      C1377   1.401       .  A
C1376      H1385   1.083       .  S
C1377      C1378   1.402       .  A
C1378      H1386   1.085       .  S
C1387      C1388   1.398       .  A
C1387      C1392   1.399       .  A
C1388      C1389   1.400       .  A
C1388      H1401   1.084       .  S
C1389      C1390   1.417       .  A
C1389      H1402   1.076       .  S
C1390      C1396   1.430       .  A
C1390      C1391   1.422       .  A
C1391      C1393   1.399       .  A
C1391      C1392   1.402       .  A
C1392      H1403   1.085       .  S
C1393      C1394   1.388       .  A
C1393      H1404   1.084       .  S
C1394      C1395   1.398       .  A
C1394      H1405   1.084       .  S
C1395      C1396   1.424       .  A
C1395      C1400   1.404       .  A
C1396      C1397   1.415       .  A
C1397      C1398   1.397       .  A
C1397      H1406   1.076       .  S
C1398      C1399   1.401       .  A
C1398      H1407   1.084       .  S
C1399      C1400   1.399       .  A
C1400      H1408   1.084       .  S
