geometry optimzed in LAMMPS
_audit_creation_date              2020-12-01 
_audit_creation_method            'lammps2cif' 
_symmetry_space_group_name_H-M    'P1' 
_symmetry_Int_Tables_number       1 
_symmetry_cell_setting            triclinic 
loop_ 
_symmetry_equiv_pos_as_xyz 
  x,y,z 
_cell_length_a                    28.34855824 
_cell_length_b                    28.129585980918268 
_cell_length_c                    42.508899626434534 
_cell_angle_alpha                 90.38689785787052 
_cell_angle_beta                  90.39868595453602 
_cell_angle_gamma                 90.18173382664536 
loop_ 
_atom_site_label 
_atom_site_type_symbol 
_atom_site_fract_x 
_atom_site_fract_y 
_atom_site_fract_z 
_atom_site_charge 
O1          O  0.15410110  0.07956316  0.65484971    -0.85000
O2          O  0.15010174  0.00953201  0.69954100    -0.82000
C3          C  0.15488693  0.03501893  0.72399181     0.98500
O4          O  0.12230828  0.06275633  0.73233099    -0.82100
O5          O  0.03589575  0.11184730  0.73162302    -0.84700
C6          C  0.04381676  0.15132408  0.71883128     1.03000
O7          O  0.05658007  0.15300626  0.69063449    -0.77500
O8          O  0.09821497  0.12631223  0.63609471    -0.77700
C9          C  0.14153973  0.11781964  0.64182322     1.03000
O10         O  0.08837702  0.02949987  0.61646033    -0.85000
O11         O  0.07380786  0.96458629  0.66494802    -0.82000
C12         C  0.06342505  0.95013164  0.69215298     0.98500
O13         O  0.07098185  0.97678911  0.71578638    -0.82100
O14         O  0.99206721  0.02816706  0.70836425    -0.84700
C15         C  0.96265810  0.05419527  0.69451300     1.03000
O16         O  0.97594807  0.09000660  0.67862396    -0.77500
O17         O  0.01915991  0.06146858  0.62356307    -0.77600
C18         C  0.04774470  0.03935986  0.60630962     1.02900
Cr19       Cr  0.11314632  0.02328846  0.66029568     1.93700
Cr20       Cr  0.05671163  0.04623905  0.71902951     1.93200
Cr21       Cr  0.03966983  0.10403102  0.65875978     1.39100
O22         O  0.06955175  0.05824678  0.67916062    -1.22700
O23         O  0.34769072  0.41894122  0.64454827    -0.85000
O24         O  0.34363554  0.48112075  0.69350758    -0.82000
C25         C  0.33839847  0.45150489  0.71548657     0.98500
O26         O  0.37267694  0.42661126  0.72477890    -0.82100
O27         O  0.46171826  0.38338628  0.72555030    -0.84700
C28         C  0.45962360  0.34544847  0.70979455     1.03000
O29         O  0.45079822  0.34644753  0.68087102    -0.77500
O30         O  0.40706221  0.37452053  0.62798324    -0.77700
C31         C  0.36306052  0.38119462  0.63205038     1.03000
O32         O  0.41211642  0.47744985  0.61258338    -0.85000
O33         O  0.42093900  0.53575397  0.66625839    -0.82000
C34         C  0.42856000  0.54600693  0.69488502     0.98500
O35         O  0.41830515  0.51615451  0.71576523    -0.82100
O36         O  0.50224243  0.47123272  0.70946397    -0.84700
C37         C  0.53439020  0.45093582  0.69412210     1.03000
O38         O  0.52502470  0.41837960  0.67402772    -0.77500
O39         O  0.48157965  0.44622511  0.61951753    -0.77600
C40         C  0.45277979  0.46849654  0.60260973     1.02900
Cr41       Cr  0.38488352  0.47602914  0.65565617     1.93700
Cr42       Cr  0.43779860  0.44839330  0.71553148     1.93200
Cr43       Cr  0.46340770  0.39994338  0.65234356     1.39100
O44         O  0.42898008  0.44085061  0.67428678    -1.22700
O45         O  0.60178308  0.61813860  0.36141669    -0.85000
O46         O  0.56227825  0.65042934  0.30785151    -0.82000
C47         C  0.55010687  0.65145276  0.27942583     0.98500
O48         O  0.53962304  0.61355471  0.26504402    -0.82100
O49         O  0.62363364  0.56301214  0.26184020    -0.84700
C50         C  0.65572124  0.53393133  0.26878497     1.03000
O51         O  0.65178128  0.50727328  0.29246474    -0.77500
O52         O  0.65727723  0.57386598  0.34018775    -0.77700
C53         C  0.64463402  0.61168154  0.35408661     1.03000
O54         O  0.52191223  0.55432036  0.36955973    -0.85000
O55         O  0.47994698  0.58977488  0.31604625    -0.82000
C56         C  0.46516951  0.55506996  0.29940182     0.98500
O57         O  0.49334940  0.52891237  0.28453299    -0.82100
O58         O  0.57200117  0.47743543  0.27401959    -0.84700
C59         C  0.56484133  0.44813054  0.29582891     1.03000
O60         O  0.57571999  0.45927919  0.32395387    -0.77500
O61         O  0.59059515  0.52051141  0.37600283    -0.77600
C62         C  0.55013838  0.53067456  0.38620154     1.02900
Cr63       Cr  0.54355869  0.59953601  0.33702784     1.93700
Cr64       Cr  0.55836541  0.54668934  0.27443923     1.93200
Cr65       Cr  0.61555962  0.51779058  0.33209548     1.39100
O66         O  0.57222146  0.55485369  0.31474103    -1.22700
O67         O  0.89551217  0.88226433  0.36281228    -0.85000
O68         O  0.93444923  0.85000302  0.30886279    -0.82000
C69         C  0.94507575  0.84933839  0.28020898     0.98500
O70         O  0.95359654  0.88755096  0.26597170    -0.82100
O71         O  0.87045740  0.94131892  0.26433656    -0.84700
C72         C  0.83988848  0.97177389  0.27192619     1.03000
O73         O  0.84533018  0.99670321  0.29652723    -0.77500
O74         O  0.83966190  0.92740159  0.34245800    -0.77700
C75         C  0.85245713  0.88928713  0.35577504     1.03000
O76         O  0.97630152  0.94539086  0.37232720    -0.85000
O77         O  0.01681948  0.91019573  0.31808396    -0.82000
C78         C  0.03140150  0.94438519  0.30137786     0.98500
O79         O  0.00306731  0.97056866  0.28666314    -0.82100
O80         O  0.92567972  0.02441645  0.27880258    -0.84700
C81         C  0.93554181  0.05173087  0.30159999     1.03000
O82         O  0.92388616  0.04016372  0.32928129    -0.77500
O83         O  0.90747478  0.97800799  0.37955600    -0.77600
C84         C  0.94835920  0.96856836  0.38944993     1.02900
Cr85       Cr  0.95360395  0.90065453  0.33888037     1.93700
Cr86       Cr  0.93699915  0.95480150  0.27701670     1.93200
Cr87       Cr  0.88224252  0.98294702  0.33571776     1.39100
O88         O  0.92445861  0.94569366  0.31730011    -1.22700
O89         O  0.87364727  0.59387442  0.86350016    -0.85000
O90         O  0.84320249  0.54660727  0.81198888    -0.82000
C91         C  0.84128383  0.53665800  0.78322542     0.98500
O92         O  0.87856589  0.53075649  0.76774940    -0.82100
O93         O  0.92966045  0.61603848  0.76529372    -0.84700
C94         C  0.95677356  0.64946356  0.77375092     1.03000
O95         O  0.98513756  0.64384867  0.79649411    -0.77500
O96         O  0.92174576  0.64837970  0.84421856    -0.77700
C97         C  0.88366385  0.63716877  0.85755622     1.03000
O98         O  0.93923122  0.51489563  0.87600795    -0.85000
O99         O  0.90889288  0.46762149  0.82262377    -0.82000
C100        C  0.94137412  0.45481632  0.80377002     0.98500
O101        O  0.96260873  0.48456690  0.78701267    -0.82100
O102        O  0.01471206  0.56289531  0.77814261    -0.84700
C103        C  0.04314348  0.55520230  0.80061567     1.03000
O104        O  0.03188180  0.56624726  0.82839164    -0.77500
O105        O  0.97500898  0.58330692  0.88024923    -0.77600
C106        C  0.96418607  0.54364141  0.89166736     1.02900
Cr107      Cr  0.89495685  0.53306027  0.84162854     1.93700
Cr108      Cr  0.94533291  0.54990170  0.77789225     1.93200
Cr109      Cr  0.97563839  0.60667075  0.83600141     1.39100
O110        O  0.93804952  0.56292858  0.81868993    -1.22700
O111        O  0.65371131  0.91745710  0.84273237    -0.85000
O112        O  0.65418731  0.98633937  0.79723818    -0.82000
C113        C  0.65711979  0.96148406  0.77237715     0.98500
O114        O  0.62300772  0.93567587  0.76337827    -0.82100
O115        O  0.53538457  0.88959469  0.76336586    -0.84700
C116        C  0.54270996  0.84980881  0.77584843     1.03000
O117        O  0.55551741  0.84752048  0.80419259    -0.77500
O118        O  0.59556804  0.87281075  0.86025655    -0.77700
C119        C  0.63921137  0.87950428  0.85530793     1.03000
O120        O  0.58811661  0.97102299  0.87918854    -0.85000
O121        O  0.57885935  0.03588918  0.82969896    -0.82000
C122        C  0.56978481  0.04980244  0.80206076     0.98500
O123        O  0.57673874  0.02219636  0.77910542    -0.82100
O124        O  0.49395723  0.97482548  0.78675635    -0.84700
C125        C  0.46422228  0.94805020  0.79965444     1.03000
O126        O  0.47706467  0.91135064  0.81466134    -0.77500
O127        O  0.51858511  0.93952405  0.87060700    -0.77600
C128        C  0.54692238  0.96159476  0.88843520     1.02900
Cr129      Cr  0.61525790  0.97533608  0.83586621     1.93700
Cr130      Cr  0.55835538  0.95426563  0.77624009     1.93200
Cr131      Cr  0.53914552  0.89649379  0.83595404     1.39100
O132        O  0.57082335  0.94165753  0.81621677    -1.22700
O133        O  0.09817643  0.37506963  0.14042682    -0.85000
O134        O  0.05915324  0.35146050  0.19625988    -0.82000
C135        C  0.04503409  0.35510187  0.22413253     0.98500
O136        O  0.03487949  0.39534137  0.23533527    -0.82100
O137        O  0.11971747  0.44611682  0.23556366    -0.84700
C138        C  0.15288251  0.47249645  0.22637912     1.03000
O139        O  0.14874474  0.49636530  0.20135599    -0.77500
O140        O  0.15350656  0.42372055  0.15809602    -0.77700
C141        C  0.14107366  0.38369412  0.14704540     1.03000
O142        O  0.01783891  0.43581162  0.12730672    -0.85000
O143        O  0.97691699  0.40936160  0.18285957    -0.82000
C144        C  0.96193553  0.44686976  0.19614888     0.98500
O145        O  0.98983064  0.47612298  0.20896319    -0.82100
O146        O  0.06863447  0.52925951  0.21683875    -0.84700
C147        C  0.06041309  0.55409172  0.19280762     1.03000
O148        O  0.07171515  0.53853060  0.16591614    -0.77500
O149        O  0.08536617  0.47102162  0.11852731    -0.77600
C150        C  0.04450382  0.45888345  0.10937867     1.02900
Cr151      Cr  0.04021372  0.39679248  0.16308866     1.93700
Cr152      Cr  0.05457393  0.46031903  0.22129623     1.93200
Cr153      Cr  0.11163759  0.47997733  0.16224670     1.39100
O154        O  0.06865149  0.44541681  0.18198883    -1.22700
O155        O  0.39547946  0.11683711  0.13611267    -0.85000
O156        O  0.44196270  0.14156047  0.18951115    -0.82000
C157        C  0.45544770  0.13908677  0.21766585     0.98500
O158        O  0.46082420  0.09915441  0.23040225    -0.82100
O159        O  0.37268184  0.05276571  0.23100400    -0.84700
C160        C  0.33906218  0.02566309  0.22291189     1.03000
O161        O  0.34211204  0.00015467  0.19833640    -0.77500
O162        O  0.33860967  0.07035154  0.15393809    -0.77700
C163        C  0.35227151  0.10947445  0.14259947     1.03000
O164        O  0.47154839  0.04956708  0.12161581    -0.85000
O165        O  0.51816132  0.07525613  0.17591408    -0.82000
C166        C  0.53044520  0.03865214  0.19133018     0.98500
O167        O  0.50086245  0.01431794  0.20618282    -0.82100
O168        O  0.41980415  0.96627604  0.21384765    -0.84700
C169        C  0.42872605  0.94027501  0.19033852     1.03000
O170        O  0.41714294  0.95408680  0.16310634    -0.77500
O171        O  0.40143972  0.01919530  0.11445536    -0.77600
C172        C  0.44202371  0.02850021  0.10419959     1.02900
Cr173      Cr  0.45436674  0.09216904  0.15726270     1.93700
Cr174      Cr  0.43719871  0.03457065  0.21742915     1.93200
Cr175      Cr  0.37834048  0.01321561  0.15876997     1.39100
O176        O  0.42343519  0.04729238  0.17766753    -1.22700
C177        C  0.24515975  0.29617533  0.14164274     0.16300
C178        C  0.28932064  0.27372787  0.14179225    -0.32700
C179        C  0.29020288  0.22393831  0.13905540     0.20700
C180        C  0.24893079  0.19752697  0.13677950     0.02900
C181        C  0.20476676  0.22000478  0.13629083    -0.22500
C182        C  0.20393492  0.26986878  0.13857116     0.12100
S183        S  0.23644304  0.35606846  0.14584004    -0.06100
C184        C  0.17658038  0.34582319  0.14267984    -0.09600
C185        C  0.16453665  0.29815820  0.13894329    -0.26200
S186        S  0.25753145  0.13733751  0.13597574    -0.03400
C187        C  0.31747628  0.14784634  0.13805320    -0.16800
C188        C  0.32961793  0.19567120  0.13942896    -0.14800
H189        H  0.32158736  0.29414713  0.14426663     0.20500
H190        H  0.17244914  0.19950385  0.13457499     0.16600
H191        H  0.12872411  0.28474874  0.13754009     0.19100
H192        H  0.36532812  0.20898637  0.14205086     0.12400
C193        C  0.53063302  0.99949313  0.97509170     0.16300
C194        C  0.53695594  0.01518800  0.00627248    -0.32700
C195        C  0.49860760  0.01122126  0.02683168     0.20700
C196        C  0.45574152  0.99254977  0.01676264     0.02900
C197        C  0.44937187  0.97688262  0.98550642    -0.22500
C198        C  0.48785069  0.98070685  0.96493779     0.12100
S199        S  0.57318982  0.00058690  0.94685332    -0.06100
C200        C  0.53326583  0.97514552  0.92089108    -0.09600
C201        C  0.48909812  0.96667855  0.93381311    -0.26200
S202        S  0.41360140  0.99104774  0.04539520    -0.03400
C203        C  0.45409827  0.01591441  0.07127727    -0.16800
C204        C  0.49791389  0.02463814  0.05801495    -0.14800
H205        H  0.57043098  0.02971527  0.01420050     0.20500
H206        H  0.41595150  0.96219811  0.97760819     0.16600
H207        H  0.45972299  0.95053401  0.92126458     0.19100
H208        H  0.52762058  0.04034463  0.07046036     0.12400
C209        C  0.01668990  0.52927161  0.97506525     0.16300
C210        C  0.04304292  0.53296733  0.00310556    -0.32700
C211        C  0.02950860  0.50443736  0.02853246     0.20700
C212        C  0.99098418  0.47409754  0.02627779     0.02900
C213        C  0.96487403  0.47010360  0.99814020    -0.22500
C214        C  0.97885901  0.49808777  0.97254097     0.12100
S215        S  0.02687940  0.56147705  0.94181049    -0.06100
C216        C  0.98027767  0.53203425  0.92394204    -0.09600
C217        C  0.95810454  0.49914705  0.94315516    -0.26200
S218        S  0.97992069  0.44299390  0.05989593    -0.03400
C219        C  0.02833352  0.47028768  0.07707677    -0.16800
C220        C  0.05123760  0.50223052  0.05754220    -0.14800
H221        H  0.07285396  0.55699633  0.00499874     0.20500
H222        H  0.93503592  0.44611046  0.99625982     0.16600
H223        H  0.92773062  0.47800072  0.93624455     0.19100
H224        H  0.08225366  0.52261893  0.06416942     0.12400
C225        C  0.81033429  0.75108934  0.86519319     0.16300
C226        C  0.79348481  0.79749436  0.86149097    -0.32700
C227        C  0.74500577  0.80512635  0.86499046     0.20700
C228        C  0.71458733  0.76836922  0.87263659     0.02900
C229        C  0.73160917  0.72177367  0.87674632    -0.22500
C230        C  0.78020964  0.71387541  0.87247099     0.12100
S231        S  0.86710793  0.73454233  0.85860832    -0.06100
C232        C  0.85064397  0.67633161  0.86501386    -0.09600
C233        C  0.80327761  0.67066108  0.87262156    -0.26200
S234        S  0.65651281  0.78499033  0.87394706    -0.03400
C235        C  0.67347593  0.84178528  0.86348681    -0.16800
C236        C  0.72178075  0.84712452  0.85978217    -0.14800
H237        H  0.81696720  0.82614821  0.85493162     0.20500
H238        H  0.70779445  0.69272241  0.88187107     0.16600
H239        H  0.78614311  0.63670247  0.87623940     0.19100
H240        H  0.73891657  0.87962966  0.85242333     0.12400
C241        C  0.00538059  0.15478403  0.26682163     0.16300
C242        C  0.02987869  0.18380603  0.24590134    -0.32700
C243        C  0.02940938  0.23279635  0.25149327     0.20700
C244        C  0.00669162  0.25213531  0.27734938     0.02900
C245        C  0.98305293  0.22278895  0.29888281    -0.22500
C246        C  0.98240240  0.17355806  0.29279326     0.12100
S247        S  0.99722751  0.09559644  0.26127738    -0.06100
C248        C  0.96179170  0.09541411  0.29404657    -0.09600
C249        C  0.95765687  0.13923553  0.30899188    -0.26200
S250        S  0.00693114  0.31295399  0.27813850    -0.03400
C251        C  0.03698309  0.31198291  0.24293211    -0.16800
C252        C  0.04710715  0.26677853  0.23186342    -0.14800
H253        H  0.04661305  0.16898925  0.22522637     0.20500
H254        H  0.96418004  0.23784828  0.31861204     0.16600
H255        H  0.93569197  0.14609961  0.32923899     0.19100
H256        H  0.06431787  0.25912012  0.20973482     0.12400
C257        C  0.01242672  0.68137893  0.20252202     0.16300
C258        C  0.00539911  0.73088727  0.20317708    -0.32700
C259        C  0.97972201  0.75009197  0.22851927     0.20700
C260        C  0.96075297  0.72114694  0.25152574     0.02900
C261        C  0.96675914  0.67190673  0.25044026    -0.22500
C262        C  0.99359913  0.65304197  0.22586889     0.12100
S263        S  0.04692816  0.65088363  0.17610144    -0.06100
C264        C  0.03688304  0.60018828  0.19768114    -0.09600
C265        C  0.00725696  0.60679925  0.22310748    -0.26200
S266        S  0.93481115  0.75079649  0.28189486    -0.03400
C267        C  0.95025279  0.80318787  0.26395973    -0.16800
C268        C  0.97326029  0.79746083  0.23538321    -0.14800
H269        H  0.02112607  0.75358733  0.18564398     0.20500
H270        H  0.95319784  0.64946502  0.26890957     0.16600
H271        H  0.99761093  0.57926897  0.23958077     0.19100
H272        H  0.98705349  0.82631927  0.22141550     0.12400
C273        C  0.16374245  0.95066781  0.28489970     0.16300
C274        C  0.20981949  0.94083678  0.27520554    -0.32700
C275        C  0.23752187  0.97908285  0.26500240     0.20700
C276        C  0.22095023  0.02543094  0.26552544     0.02900
C277        C  0.17490600  0.03529847  0.27535926    -0.22500
C278        C  0.14659583  0.99678593  0.28442432     0.12100
S279        S  0.12302833  0.90864955  0.29524056    -0.06100
C280        C  0.08208643  0.95349503  0.29770323    -0.09600
C281        C  0.09969602  0.99855391  0.29164839    -0.26200
S282        S  0.25939556  0.06643747  0.25059297    -0.03400
C283        C  0.29728085  0.02033178  0.24266131    -0.16800
C284        C  0.28118140  0.97598348  0.25169891    -0.14800
H285        H  0.22283784  0.90466774  0.27435212     0.20500
H286        H  0.16106167  0.07114452  0.27466601     0.16600
H287        H  0.07875540  0.03070878  0.29138059     0.19100
H288        H  0.29972018  0.94292744  0.24748221     0.12400
C289        C  0.65050606  0.98255787  0.20707310     0.16300
C290        C  0.68643684  0.95225567  0.21756190    -0.32700
C291        C  0.72911059  0.97313849  0.22726361     0.20700
C292        C  0.73578509  0.02200184  0.22601595     0.02900
C293        C  0.70050756  0.05208422  0.21442142    -0.22500
C294        C  0.65757832  0.03130994  0.20525720     0.12100
S295        S  0.59414806  0.96489543  0.19919858    -0.06100
C296        C  0.57989944  0.02377636  0.19347410    -0.09600
C297        C  0.61728699  0.05517062  0.19682606    -0.26200
S298        S  0.78717351  0.04128698  0.24265914    -0.03400
C299        C  0.80006693  0.98300827  0.25120596    -0.16800
C300        C  0.76646090  0.95031307  0.24130066    -0.14800
H301        H  0.68044889  0.91438172  0.21973810     0.20500
H302        H  0.70537781  0.09028236  0.21423963     0.16600
H303        H  0.61427519  0.09349786  0.19574857     0.19100
H304        H  0.76772902  0.91258103  0.24611202     0.12400
C305        C  0.74753567  0.70101490  0.36382687     0.16300
C306        C  0.79134489  0.72448819  0.36386110    -0.32700
C307        C  0.79144007  0.77446110  0.36495639     0.20700
C308        C  0.74980134  0.80009385  0.36594098     0.02900
C309        C  0.70598224  0.77656246  0.36678839    -0.22500
C310        C  0.70588764  0.72652001  0.36568769     0.12100
S311        S  0.73971411  0.64086568  0.35951214    -0.06100
C312        C  0.67959141  0.64986350  0.36074151    -0.09600
C313        C  0.66687822  0.69733313  0.36437162    -0.26200
S314        S  0.75756410  0.86052823  0.36384010    -0.03400
C315        C  0.81762867  0.85118439  0.36210969    -0.16800
C316        C  0.83035112  0.80353285  0.36326596    -0.14800
H317        H  0.82393012  0.70470476  0.36207189     0.20500
H318        H  0.67332326  0.79640153  0.36724117     0.16600
H319        H  0.63086822  0.71008390  0.36435821     0.19100
H320        H  0.86617945  0.79066801  0.36121946     0.12400
C321        C  0.48411344  0.81664420  0.20061619     0.16300
C322        C  0.49468206  0.76788087  0.20063739    -0.32700
C323        C  0.51806204  0.74964877  0.22725041     0.20700
C324        C  0.53199113  0.77894174  0.25202966     0.02900
C325        C  0.52267889  0.82759021  0.25158971    -0.22500
C326        C  0.49764508  0.84528286  0.22577773     0.12100
S327        S  0.45078725  0.84536628  0.17271634    -0.06100
C328        C  0.45382746  0.89550095  0.19616418    -0.09600
C329        C  0.48066766  0.89025489  0.22325241    -0.26200
S330        S  0.55540267  0.75005831  0.28352909    -0.03400
C331        C  0.54513221  0.69752408  0.26369109    -0.16800
C332        C  0.52608151  0.70265067  0.23371101    -0.14800
H333        H  0.48289281  0.74479611  0.18167815     0.20500
H334        H  0.53200461  0.85018631  0.27139595     0.16600
H335        H  0.48617873  0.91772730  0.24088194     0.19100
H336        H  0.51584918  0.67348183  0.21835685     0.12400
C337        C  0.50047532  0.24414933  0.26870532     0.16300
C338        C  0.52335685  0.27435929  0.29067704    -0.32700
C339        C  0.52494132  0.32338395  0.28403703     0.20700
C340        C  0.50431542  0.34091569  0.25680681     0.02900
C341        C  0.48128752  0.31103848  0.23520027    -0.22500
C342        C  0.48004157  0.26244681  0.24167573     0.12100
S343        S  0.49656213  0.18344146  0.27106792    -0.06100
C344        C  0.46753610  0.18314347  0.23515028    -0.09600
C345        C  0.46108888  0.22791366  0.22250463    -0.26200
S346        S  0.51135656  0.40015250  0.25155988    -0.03400
C347        C  0.54286430  0.40245195  0.28636706    -0.16800
C348        C  0.54698296  0.35892364  0.30149582    -0.14800
H349        H  0.53992953  0.26019331  0.31161115     0.20500
H350        H  0.46583877  0.32503359  0.21382260     0.16600
H351        H  0.44464943  0.23479242  0.19991667     0.19100
H352        H  0.56627571  0.35332702  0.32321088     0.12400
C353        C  0.77200636  0.53055138  0.22496273     0.16300
C354        C  0.81804543  0.53961604  0.21493428    -0.32700
C355        C  0.84656240  0.50030898  0.20807813     0.20700
C356        C  0.82959881  0.45407428  0.20976099     0.02900
C357        C  0.78345599  0.44504252  0.21941490    -0.22500
C358        C  0.75563113  0.48420866  0.22753789     0.12100
S359        S  0.73371537  0.57287692  0.23833344    -0.06100
C360        C  0.69648507  0.52731398  0.24855363    -0.09600
C361        C  0.71231277  0.48222370  0.24109893    -0.26200
S362        S  0.87063040  0.41118480  0.20244650    -0.03400
C363        C  0.91136060  0.45603384  0.19832787    -0.16800
C364        C  0.89359920  0.50160449  0.20156605    -0.14800
H365        H  0.83183368  0.57554231  0.21413568     0.20500
H366        H  0.77062178  0.40898976  0.22209087     0.16600
H367        H  0.69409436  0.44955804  0.24694276     0.19100
H368        H  0.91451976  0.53386800  0.20059683     0.12400
C369        C  0.27511014  0.47297059  0.26376358     0.16300
C370        C  0.32246275  0.46376894  0.27083834    -0.32700
C371        C  0.35024793  0.50185954  0.28167618     0.20700
C372        C  0.33161411  0.54686982  0.28632978     0.02900
C373        C  0.28414258  0.55606671  0.27935043    -0.22500
C374        C  0.25669315  0.51829061  0.26750851     0.12100
S375        S  0.23682244  0.43258648  0.24747091    -0.06100
C376        C  0.19614738  0.47754875  0.24494409    -0.09600
C377        C  0.21134023  0.52115515  0.25648839    -0.26200
S378        S  0.37198423  0.58864321  0.29841337    -0.03400
C379        C  0.41450300  0.54524560  0.29601959    -0.16800
C380        C  0.39774656  0.50077956  0.28712188    -0.14800
H381        H  0.33747153  0.42889601  0.26688200     0.20500
H382        H  0.26972441  0.59147896  0.28186561     0.16600
H383        H  0.19095488  0.55362369  0.25552904     0.19100
H384        H  0.41954591  0.46959912  0.28378797     0.12400
C385        C  0.46611520  0.50682827  0.51643092     0.16300
C386        C  0.45931132  0.52364889  0.48572956    -0.32700
C387        C  0.49524298  0.51542752  0.46382347     0.20700
C388        C  0.53607201  0.49141126  0.47211926     0.02900
C389        C  0.54283546  0.47452388  0.50279890    -0.22500
C390        C  0.50699405  0.48290579  0.52473267     0.12100
S391        S  0.42645952  0.51253914  0.54625528    -0.06100
C392        C  0.46531522  0.48239494  0.57028009    -0.09600
C393        C  0.50683243  0.46892571  0.55563136    -0.26200
S394        S  0.57592313  0.48600733  0.44240007    -0.03400
C395        C  0.53737307  0.51667367  0.41846798    -0.16800
C396        C  0.49568781  0.52988628  0.43301886    -0.14800
H397        H  0.42744239  0.54240414  0.47922358     0.20500
H398        H  0.57473892  0.45583792  0.50931899     0.16600
H399        H  0.53488738  0.44897112  0.56676465     0.19100
H400        H  0.46772503  0.54998232  0.42189606     0.12400
C401        C  0.16788133  0.50411641  0.79044073     0.16300
C402        C  0.21603766  0.49264556  0.79222074    -0.32700
C403        C  0.23676459  0.47188553  0.76549311     0.20700
C404        C  0.21034732  0.46192381  0.73862391     0.02900
C405        C  0.16223230  0.47224057  0.73716261    -0.22500
C406        C  0.14202291  0.49424072  0.76336782     0.12100
S407        S  0.13660309  0.53342188  0.81894474    -0.06100
C408        C  0.08895133  0.53336872  0.79352009    -0.09600
C409        C  0.09693847  0.51078119  0.76502542    -0.26200
S410        S  0.24233528  0.44293862  0.70727679    -0.03400
C411        C  0.29210109  0.44874456  0.73029790    -0.16800
C412        C  0.28400452  0.46367420  0.76094397    -0.14800
H413        H  0.23685205  0.50158108  0.81286854     0.20500
H414        H  0.14199830  0.46583145  0.71586140     0.16600
H415        H  0.07119783  0.50728515  0.74620451     0.19100
H416        H  0.31144827  0.47243190  0.77786394     0.12400
C417        C  0.66643131  0.48074048  0.70711423     0.16300
C418        C  0.71597364  0.48520914  0.70677899    -0.32700
C419        C  0.73811387  0.50606537  0.73333861     0.20700
C420        C  0.71188125  0.52209877  0.75868583     0.02900
C421        C  0.66279588  0.51861051  0.75869005    -0.22500
C422        C  0.64095006  0.49750832  0.73254782     0.12100
S423        S  0.63208922  0.45346732  0.67870209    -0.06100
C424        C  0.58340266  0.46513450  0.70168470    -0.09600
C425        C  0.59378846  0.48920756  0.72942054    -0.26200
S426        S  0.74422618  0.54330497  0.78955261    -0.03400
C427        C  0.79432746  0.53070567  0.76849902    -0.16800
C428        C  0.78586998  0.51133647  0.73875135    -0.14800
H429        H  0.73635741  0.47188608  0.68719106     0.20500
H430        H  0.64249416  0.53066372  0.77868774     0.16600
H431        H  0.56808252  0.49908030  0.74702061     0.19100
H432        H  0.81304782  0.50013666  0.72257003     0.12400
C433        C  0.48469709  0.21795779  0.73546558     0.16300
C434        C  0.49231826  0.16904913  0.73616132    -0.32700
C435        C  0.51473462  0.15041146  0.76269594     0.20700
C436        C  0.52860185  0.17865775  0.78795182     0.02900
C437        C  0.52053439  0.22802010  0.78739315    -0.22500
C438        C  0.49844592  0.24696468  0.76042810     0.12100
S439        S  0.46070530  0.24698466  0.70425570    -0.06100
C440        C  0.46919688  0.29932202  0.72467164    -0.09600
C441        C  0.48930522  0.29404266  0.75439708    -0.26200
S442        S  0.55687584  0.14783843  0.81740961    -0.03400
C443        C  0.55047766  0.09707959  0.79474199    -0.16800
C444        C  0.52695334  0.10411506  0.76649905    -0.14800
H445        H  0.48220344  0.14652131  0.71644951     0.20500
H446        H  0.53180189  0.25070264  0.80672503     0.16600
H447        H  0.49823911  0.32311675  0.77019088     0.19100
H448        H  0.51982331  0.07657877  0.74912973     0.12400
C449        C  0.50417905  0.74529395  0.72252970     0.16300
C450        C  0.48332407  0.71557787  0.69945877    -0.32700
C451        C  0.47607301  0.66749136  0.70715573     0.20700
C452        C  0.48977708  0.65023887  0.73631848     0.02900
C453        C  0.51151004  0.67940817  0.75883216    -0.22500
C454        C  0.51799770  0.72718413  0.75140295     0.12100
S455        S  0.51175132  0.80552177  0.71963483    -0.06100
C456        C  0.53313938  0.80580492  0.75782952    -0.09600
C457        C  0.53503294  0.76138881  0.77149400    -0.26200
S458        S  0.47577188  0.59259104  0.74266292    -0.03400
C459        C  0.45077551  0.59068154  0.70565016    -0.16800
C460        C  0.45396900  0.63294425  0.68901968    -0.14800
H461        H  0.47180740  0.72963110  0.67704465     0.20500
H462        H  0.52141721  0.66574043  0.78170023     0.16600
H463        H  0.54601216  0.75472923  0.79552142     0.19100
H464        H  0.43986584  0.63840865  0.66559401     0.12400
C465        C  0.96345661  0.01139503  0.47518778     0.16300
C466        C  0.95690438  0.02985864  0.50561885    -0.32700
C467        C  0.99312779  0.02311599  0.52780437     0.20700
C468        C  0.03412550  0.99919998  0.51992148     0.02900
C469        C  0.04071136  0.98080049  0.48947193    -0.22500
C470        C  0.00441130  0.98739899  0.46731012     0.12100
S471        S  0.92320015  0.01486771  0.44528167    -0.06100
C472        C  0.96166311  0.98339625  0.42178390    -0.09600
C473        C  0.00370287  0.97134308  0.43663567    -0.26200
S474        S  0.07406666  0.99511522  0.54998632    -0.03400
C475        C  0.03526442  0.02596261  0.57358939    -0.16800
C476        C  0.99347731  0.03849237  0.55861557    -0.14800
H477        H  0.92485473  0.04847190  0.51176386     0.20500
H478        H  0.07268102  0.96202240  0.48336490     0.16600
H479        H  0.03176140  0.95112047  0.42581268     0.19100
H480        H  0.96520640  0.05830644  0.56952424     0.12400
C481        C  0.24947422  0.19870067  0.62854480     0.16300
C482        C  0.29476474  0.21910897  0.62825388    -0.32700
C483        C  0.29823823  0.26844057  0.62382659     0.20700
C484        C  0.25833090  0.29611104  0.61959007     0.02900
C485        C  0.21311838  0.27551294  0.61906535    -0.22500
C486        C  0.20961636  0.22626665  0.62384708     0.12100
S487        S  0.23763119  0.14049556  0.63672748    -0.06100
C488        C  0.17824197  0.15317295  0.63374405    -0.09600
C489        C  0.16864014  0.20026217  0.62648411    -0.26200
S490        S  0.26946496  0.35580589  0.61843420    -0.03400
C491        C  0.32860579  0.34357790  0.62365067    -0.16800
C492        C  0.33876504  0.29541648  0.62565820    -0.14800
H493        H  0.32582731  0.19775276  0.63256905     0.20500
H494        H  0.18190372  0.29723866  0.61638708     0.16600
H495        H  0.13355770  0.21516531  0.62468817     0.19100
H496        H  0.37343599  0.28115095  0.63066864     0.12400
C497        C  0.33255889  0.95631220  0.78131831     0.16300
C498        C  0.28667293  0.94701563  0.77068397    -0.32700
C499        C  0.25840175  0.98597069  0.76289876     0.20700
C500        C  0.27418585  0.03241260  0.76654419     0.02900
C501        C  0.32029954  0.04178229  0.77722368    -0.22500
C502        C  0.34927420  0.00258929  0.78392783     0.12100
S503        S  0.37326433  0.91352208  0.78952110    -0.06100
C504        C  0.41388889  0.95823062  0.79533429    -0.09600
C505        C  0.39626607  0.00389093  0.79176339    -0.26200
S506        S  0.23449010  0.07443265  0.75432892    -0.03400
C507        C  0.19739326  0.02859548  0.74328156    -0.16800
C508        C  0.21463575  0.98363389  0.74940478    -0.14800
H509        H  0.27414518  0.91092133  0.76746510     0.20500
H510        H  0.33356096  0.07781700  0.77903939     0.16600
H511        H  0.41709479  0.03611257  0.79383271     0.19100
H512        H  0.19673408  0.95083480  0.74308985     0.12400
C513        C  0.82958711  0.03956777  0.70862855     0.16300
C514        C  0.78153729  0.04609547  0.71500818    -0.32700
C515        C  0.75694505  0.00811020  0.72872016     0.20700
C516        C  0.77877515  0.96515795  0.73516219     0.02900
C517        C  0.82661313  0.95855924  0.72859912    -0.22500
C518        C  0.85136525  0.99681592  0.71555929     0.12100
S519        S  0.86697245  0.08227289  0.69434953    -0.06100
C520        C  0.91241508  0.04223181  0.69850471    -0.09600
C521        C  0.89862927  0.99814843  0.70977253    -0.26200
S522        S  0.74378084  0.92466201  0.75381328    -0.03400
C523        C  0.69953566  0.96624825  0.75326242    -0.16800
C524        C  0.71139603  0.00892132  0.73921161    -0.14800
H525        H  0.76449521  0.07977084  0.71052790     0.20500
H526        H  0.84420443  0.92564829  0.73444290     0.16600
H527        H  0.92238750  0.96894320  0.71455325     0.19100
H528        H  0.68860684  0.03970399  0.73823129     0.12400
C529        C  0.03332042  0.27647643  0.75409068     0.16300
C530        C  0.03705235  0.32518933  0.76023975    -0.32700
C531        C  0.00151298  0.34650272  0.77811121     0.20700
C532        C  0.96391862  0.32078477  0.78991199     0.02900
C533        C  0.96088672  0.27139769  0.78452472    -0.22500
C534        C  0.99642694  0.24996283  0.76623034     0.12100
S535        S  0.07014541  0.24566237  0.72982674    -0.06100
C536        C  0.03618936  0.19598840  0.73631867    -0.09600
C537        C  0.99838887  0.20327556  0.75645890    -0.26200
S538        S  0.92233350  0.35535237  0.80851649    -0.03400
C539        C  0.95601782  0.40466938  0.79967198    -0.16800
C540        C  0.99751117  0.39398065  0.78398998    -0.14800
H541        H  0.06545505  0.34605169  0.75037946     0.20500
H542        H  0.93132496  0.25094968  0.79316025     0.16600
H543        H  0.97236256  0.17650106  0.76220329     0.19100
H544        H  0.02269071  0.42012976  0.77581919     0.12400
C545        C  0.01491875  0.82199069  0.69963911     0.16300
C546        C  0.00456693  0.77297572  0.69762736    -0.32700
C547        C  0.98248687  0.75160568  0.72365878     0.20700
C548        C  0.97031661  0.77828122  0.74993539     0.02900
C549        C  0.97984058  0.82692415  0.75165205    -0.22500
C550        C  0.00296920  0.84775145  0.72629376     0.12100
S551        S  0.04482269  0.85488673  0.67215146    -0.04500
C552        C  0.04214797  0.90291867  0.69762509    -0.09600
C553        C  0.01836150  0.89367959  0.72526068    -0.26200
S554        S  0.94889004  0.74626034  0.78049376    -0.03400
C555        C  0.95655583  0.69583655  0.75817301    -0.16800
C556        C  0.97416699  0.70378982  0.72818969    -0.14800
H557        H  0.01498925  0.75213949  0.67735214     0.20500
H558        H  0.97161151  0.84729356  0.77260168     0.16600
H559        H  0.01314453  0.91929718  0.74404930     0.19100
H560        H  0.98404139  0.67599336  0.71179628     0.12400
loop_ 
_geom_bond_atom_site_label_1 
_geom_bond_atom_site_label_2 
_geom_bond_distance 
_geom_bond_site_symmetry_2 
_ccdc_geom_bond_type 
O1          Cr19   1.976       .  S
O1            C9   1.265       .  A
O2          Cr19   2.004       .  S
O2            C3   1.265       .  A
C3            O4   1.262       .  A
C3          C507   1.465       .  S
O4          Cr20   1.992       .  S
O5          Cr20   2.010       .  S
O5            C6   1.260       .  A
C6            O7   1.256       .  A
C6          C536   1.473       .  S
O7          Cr21   1.981       .  S
O8          Cr21   2.025       .  S
O8            C9   1.274       .  A
C9          C488   1.481       .  S
O10         Cr19   1.996       .  S
O10          C18   1.260       .  A
O11         Cr19   2.001   1_565  S
O11          C12   1.265       .  A
C12          O13   1.266       .  A
C12         C552   1.477       .  S
O13         Cr20   2.000   1_565  S
O14         Cr20   1.950   1_655  S
O14          C15   1.257       .  A
C15          O16   1.274       .  A
C15         C520   1.474       .  S
O16         Cr21   2.038   1_655  S
O17         Cr21   1.992       .  S
O17          C18   1.260       .  A
C18         C475   1.479       .  S
Cr19         O22   1.774       .  S
Cr20         O22   1.770       .  S
Cr21         O22   1.772       .  S
O23         Cr41   1.971       .  S
O23          C31   1.264       .  A
O24         Cr41   2.000       .  S
O24          C25   1.265       .  A
C25          O26   1.262       .  A
C25         C411   1.462       .  S
O26         Cr42   1.986       .  S
O27         Cr42   2.000       .  S
O27          C28   1.257       .  A
C28          O29   1.254       .  A
C28         C440   1.472       .  S
O29         Cr43   1.972       .  S
O30         Cr43   2.024       .  S
O30          C31   1.275       .  A
C31         C491   1.478       .  S
O32         Cr41   1.993       .  S
O32          C40   1.257       .  A
O33         Cr41   2.011       .  S
O33          C34   1.266       .  A
C34          O35   1.261       .  A
C34         C459   1.473       .  S
O35         Cr42   1.986       .  S
O36         Cr42   1.954       .  S
O36          C37   1.260       .  A
C37          O38   1.274       .  A
C37         C424   1.477       .  S
O38         Cr43   2.034       .  S
O39         Cr43   1.984       .  S
O39          C40   1.256       .  A
C40         C392   1.477       .  S
Cr41         O44   1.782       .  S
Cr42         O44   1.780       .  S
Cr43         O44   1.775       .  S
O45         Cr63   2.009       .  S
O45          C53   1.270       .  A
O46         Cr63   1.974       .  S
O46          C47   1.255       .  A
C47          O48   1.259       .  A
C47         C331   1.469       .  S
O48         Cr64   1.998       .  S
O49         Cr64   1.983       .  S
O49          C50   1.260       .  A
C50          O51   1.265       .  A
C50         C360   1.457       .  S
O51         Cr65   2.000       .  S
O52         Cr65   1.995       .  S
O52          C53   1.267       .  A
C53         C312   1.484       .  S
O54         Cr63   1.984       .  S
O54          C62   1.259       .  A
O55         Cr63   2.023       .  S
O55          C56   1.270       .  A
C56          O57   1.258       .  A
C56         C379   1.468       .  S
O57         Cr64   1.959       .  S
O58         Cr64   1.987       .  S
O58          C59   1.262       .  A
C59          O60   1.270       .  A
C59         C347   1.478       .  S
O60         Cr65   2.020       .  S
O61         Cr65   2.002       .  S
O61          C62   1.262       .  A
C62         C395   1.477       .  S
Cr63         O66   1.772       .  S
Cr64         O66   1.768       .  S
Cr65         O66   1.774       .  S
O67         Cr85   2.010       .  S
O67          C75   1.271       .  A
O68         Cr85   1.978       .  S
O68          C69   1.257       .  A
C69          O70   1.261       .  A
C69         C267   1.475       .  S
O70         Cr86   2.004       .  S
O71         Cr86   1.993       .  S
O71          C72   1.262       .  A
C72          O73   1.263       .  A
C72         C299   1.464       .  S
O73         Cr87   2.002       .  S
O74         Cr87   1.995       .  S
O74          C75   1.269       .  A
C75         C315   1.482       .  S
O76         Cr85   1.994       .  S
O76          C84   1.260       .  A
O77         Cr85   2.022   1_455  S
O77          C78   1.269       .  A
C78          O79   1.258       .  A
C78         C280   1.468       .  S
O79         Cr86   1.963   1_455  S
O80         Cr86   1.986   1_545  S
O80          C81   1.262       .  A
C81          O82   1.269       .  A
C81         C248   1.473       .  S
O82         Cr87   2.014   1_545  S
O83         Cr87   1.997       .  S
O83          C84   1.260       .  A
C84         C472   1.480       .  S
Cr85         O88   1.772       .  S
Cr86         O88   1.771       .  S
Cr87         O88   1.776       .  S
O89        Cr107   2.037       .  S
O89          C97   1.277       .  A
O90        Cr107   1.967       .  S
O90          C91   1.253       .  A
C91          O92   1.260       .  A
C91         C427   1.476       .  S
O92        Cr108   2.009       .  S
O93        Cr108   1.990       .  S
O93          C94   1.261       .  A
C94          O95   1.264       .  A
C94         C555   1.467       .  S
O95        Cr109   2.004       .  S
O96        Cr109   1.961       .  S
O96          C97   1.263       .  A
C97         C232   1.482       .  S
O98        Cr107   1.990       .  S
O98         C106   1.257       .  A
O99        Cr107   2.046       .  S
O99         C100   1.276       .  A
C100        O101   1.257       .  A
C100        C539   1.481       .  S
O101       Cr108   1.944       .  S
O102       Cr108   1.999   1_455  S
O102        C103   1.266       .  A
C103        O104   1.262       .  A
C103        C408   1.471       .  S
O104       Cr109   1.988   1_455  S
O105       Cr109   1.997       .  S
O105        C106   1.258       .  A
C106        C216   1.482       .  S
Cr107       O110   1.781       .  S
Cr108       O110   1.784       .  S
Cr109       O110   1.778       .  S
O111       Cr129   1.984       .  S
O111        C119   1.266       .  A
O112       Cr129   2.010       .  S
O112        C113   1.267       .  A
C113        O114   1.263       .  A
C113        C523   1.462       .  S
O114       Cr130   1.987       .  S
O115       Cr130   2.002       .  S
O115        C116   1.259       .  A
C116        O117   1.258       .  A
C116        C456   1.475       .  S
O117       Cr131   1.981       .  S
O118       Cr131   2.016       .  S
O118        C119   1.270       .  A
C119        C235   1.482       .  S
O120       Cr129   2.005       .  S
O120        C128   1.263       .  A
O121       Cr129   2.012   1_545  S
O121        C122   1.266       .  A
C122        O123   1.260       .  A
C122        C443   1.474       .  S
O123       Cr130   1.982   1_545  S
O124       Cr130   1.970       .  S
O124        C125   1.260       .  A
C125        O126   1.270       .  A
C125        C504   1.467       .  S
O126       Cr131   2.020       .  S
O127       Cr131   1.992       .  S
O127        C128   1.260       .  A
C128        C200   1.483       .  S
Cr129       O132   1.775       .  S
Cr130       O132   1.772       .  S
Cr131       O132   1.773       .  S
O133       Cr151   2.005       .  S
O133        C141   1.269       .  A
O134       Cr151   1.980       .  S
O134        C135   1.257       .  A
C135        O136   1.260       .  A
C135        C251   1.475       .  S
O136       Cr152   2.005       .  S
O137       Cr152   1.982       .  S
O137        C138   1.262       .  A
C138        O139   1.267       .  A
C138        C376   1.460       .  S
O139       Cr153   2.011       .  S
O140       Cr153   1.989       .  S
O140        C141   1.265       .  A
C141        C184   1.480       .  S
O142       Cr151   1.983       .  S
O142        C150   1.259       .  A
O143       Cr151   2.018   1_655  S
O143        C144   1.269       .  A
C144        O145   1.258       .  A
C144        C363   1.461       .  S
O145       Cr152   1.959   1_655  S
O146       Cr152   1.989       .  S
O146        C147   1.262       .  A
C147        O148   1.265       .  A
C147        C264   1.474       .  S
O148       Cr153   2.007       .  S
O149       Cr153   2.011       .  S
O149        C150   1.265       .  A
C150        C219   1.482       .  S
Cr151       O154   1.771       .  S
Cr152       O154   1.769       .  S
Cr153       O154   1.775       .  S
O155       Cr173   2.018       .  S
O155        C163   1.274       .  A
O156       Cr173   1.979       .  S
O156        C157   1.256       .  A
C157        O158   1.259       .  A
C157        C344   1.479       .  S
O158       Cr174   2.007       .  S
O159       Cr174   1.989       .  S
O159        C160   1.263       .  A
C160        O161   1.267       .  A
C160        C283   1.464       .  S
O161       Cr175   2.012       .  S
O162       Cr175   1.977       .  S
O162        C163   1.265       .  A
C163        C187   1.477       .  S
O164       Cr173   1.990       .  S
O164        C172   1.258       .  A
O165       Cr173   2.029       .  S
O165        C166   1.272       .  A
C166        O167   1.257       .  A
C166        C296   1.467       .  S
O167       Cr174   1.956       .  S
O168       Cr174   1.986   1_565  S
O168        C169   1.262       .  A
C169        O170   1.265       .  A
C169        C328   1.470       .  S
O170       Cr175   2.006   1_565  S
O171       Cr175   2.007       .  S
O171        C172   1.260       .  A
C172        C203   1.484       .  S
Cr173       O176   1.770       .  S
Cr174       O176   1.771       .  S
Cr175       O176   1.779       .  S
C177        S183   1.712       .  A
C177        C182   1.386       .  A
C177        C178   1.404       .  A
C178        C179   1.405       .  A
C178        H189   1.083       .  S
C179        C188   1.374       .  A
C179        C180   1.386       .  A
C180        S186   1.711       .  A
C180        C181   1.404       .  A
C181        C182   1.406       .  A
C181        H190   1.083       .  S
C182        C185   1.374       .  A
S183        C184   1.725       .  A
C184        C185   1.390       .  A
C185        H191   1.083       .  S
S186        C187   1.725       .  A
C187        C188   1.388       .  A
C188        H192   1.083       .  S
C193        S199   1.708   1_565  A
C193        C198   1.386       .  A
C193        C194   1.404   1_566  A
C194        C195   1.404       .  A
C194        H205   1.083       .  S
C195        C204   1.376       .  A
C195        C196   1.386   1_545  A
C196        S202   1.712       .  A
C196        C197   1.407   1_554  A
C197        C198   1.407       .  A
C197        H206   1.083       .  S
C198        C201   1.379       .  A
S199        C200   1.726   1_545  A
C200        C201   1.391       .  A
C201        H207   1.083       .  S
S202        C203   1.728   1_565  A
C203        C204   1.389       .  A
C204        H208   1.083       .  S
C209        S215   1.710       .  A
C209        C214   1.386   1_455  A
C209        C210   1.405   1_556  A
C210        C211   1.405       .  A
C210        H221   1.083       .  S
C211        C220   1.376       .  A
C211        C212   1.386   1_455  A
C212        S218   1.711       .  A
C212        C213   1.406   1_554  A
C213        C214   1.406       .  A
C213        H222   1.083       .  S
C214        C217   1.378       .  A
S215        C216   1.726   1_455  A
C216        C217   1.390       .  A
C217        H223   1.083       .  S
S218        C219   1.726   1_655  A
C219        C220   1.390       .  A
C220        H224   1.083       .  S
C225        S231   1.701       .  A
C225        C230   1.387       .  A
C225        C226   1.401       .  A
C226        C227   1.400       .  A
C226        H237   1.083       .  S
C227        C236   1.373       .  A
C227        C228   1.386       .  A
C228        S234   1.714       .  A
C228        C229   1.410       .  A
C229        C230   1.409       .  A
C229        H238   1.083       .  S
C230        C233   1.382       .  A
S231        C232   1.725       .  A
C232        C233   1.392       .  A
C233        H239   1.083       .  S
S234        C235   1.729       .  A
C235        C236   1.387       .  A
C236        H240   1.083       .  S
C241        S247   1.695   1_455  A
C241        C246   1.388   1_455  A
C241        C242   1.398       .  A
C242        C243   1.397       .  A
C242        H253   1.083       .  S
C243        C252   1.369       .  A
C243        C244   1.387       .  A
C244        S250   1.711       .  A
C244        C245   1.408   1_455  A
C245        C246   1.407       .  A
C245        H254   1.083       .  S
C246        C249   1.382       .  A
S247        C248   1.723       .  A
C248        C249   1.389       .  A
C249        H255   1.082       .  S
S250        C251   1.727       .  A
C251        C252   1.384       .  A
C252        H256   1.083       .  S
C257        S263   1.721       .  A
C257        C262   1.386   1_455  A
C257        C258   1.408       .  A
C258        C259   1.410   1_455  A
C258        H269   1.082       .  S
C259        C268   1.375       .  A
C259        C260   1.387       .  A
C260        S266   1.705       .  A
C260        C261   1.397       .  A
C261        C262   1.399       .  A
C261        H270   1.083       .  S
C262        C265   1.363   1_655  A
S263        C264   1.725       .  A
C264        C265   1.385       .  A
C265        H271   1.083   1_455  S
S266        C267   1.721       .  A
C267        C268   1.391       .  A
C268        H272   1.083       .  S
C273        S279   1.711       .  A
C273        C278   1.387       .  A
C273        C274   1.400       .  A
C274        C275   1.403       .  A
C274        H285   1.084       .  S
C275        C284   1.367       .  A
C275        C276   1.387   1_565  A
C276        S282   1.713       .  A
C276        C277   1.401       .  A
C277        C278   1.404   1_545  A
C277        H286   1.084       .  S
C278        C281   1.368       .  A
S279        C280   1.720       .  A
C280        C281   1.387       .  A
C281        H287   1.084   1_565  S
S282        C283   1.720       .  A
C283        C284   1.385   1_545  A
C284        H288   1.084       .  S
C289        S295   1.702       .  A
C289        C294   1.388   1_565  A
C289        C290   1.403       .  A
C290        C291   1.401       .  A
C290        H301   1.083       .  S
C291        C300   1.375       .  A
C291        C292   1.388   1_565  A
C292        S298   1.701       .  A
C292        C293   1.401       .  A
C293        C294   1.400       .  A
C293        H302   1.083       .  S
C294        C297   1.373       .  A
S295        C296   1.725   1_565  A
C296        C297   1.383       .  A
C297        H303   1.083       .  S
S298        C299   1.721   1_545  A
C299        C300   1.384       .  A
C300        H304   1.083       .  S
C305        S311   1.714       .  A
C305        C310   1.386       .  A
C305        C306   1.405       .  A
C306        C307   1.406       .  A
C306        H317   1.083       .  S
C307        C316   1.374       .  A
C307        C308   1.386       .  A
C308        S314   1.716       .  A
C308        C309   1.407       .  A
C309        C310   1.408       .  A
C309        H318   1.083       .  S
C310        C313   1.376       .  A
S311        C312   1.725       .  A
C312        C313   1.392       .  A
C313        H319   1.083       .  S
S314        C315   1.726       .  A
C315        C316   1.390       .  A
C316        H320   1.083       .  S
C321        S327   1.719       .  A
C321        C326   1.386       .  A
C321        C322   1.405       .  A
C322        C323   1.408       .  A
C322        H333   1.082       .  S
C323        C332   1.371       .  A
C323        C324   1.387       .  A
C324        S330   1.703       .  A
C324        C325   1.395       .  A
C325        C326   1.398       .  A
C325        H334   1.082       .  S
C326        C329   1.360       .  A
S327        C328   1.723       .  A
C328        C329   1.385       .  A
C329        H335   1.083       .  S
S330        C331   1.720       .  A
C331        C332   1.389       .  A
C332        H336   1.083       .  S
C337        S343   1.715       .  A
C337        C342   1.386       .  A
C337        C338   1.412       .  A
C338        C339   1.410       .  A
C338        H349   1.082       .  S
C339        C348   1.386       .  A
C339        C340   1.387       .  A
C340        S346   1.694       .  A
C340        C341   1.398       .  A
C341        C342   1.397       .  A
C341        H350   1.083       .  S
C342        C345   1.370       .  A
S343        C344   1.729       .  A
C344        C345   1.385       .  A
C345        H351   1.083       .  S
S346        C347   1.724       .  A
C347        C348   1.392       .  A
C348        H352   1.082       .  S
C353        S359   1.711       .  A
C353        C358   1.388       .  A
C353        C354   1.399       .  A
C354        C355   1.402       .  A
C354        H365   1.083       .  S
C355        C364   1.364       .  A
C355        C356   1.388       .  A
C356        S362   1.707       .  A
C356        C357   1.397       .  A
C357        C358   1.400       .  A
C357        H366   1.083       .  S
C358        C361   1.361       .  A
S359        C360   1.718       .  A
C360        C361   1.382       .  A
C361        H367   1.084       .  S
S362        C363   1.718       .  A
C363        C364   1.385       .  A
C364        H368   1.084       .  S
C369        S375   1.709       .  A
C369        C374   1.388       .  A
C369        C370   1.399       .  A
C370        C371   1.401       .  A
C370        H381   1.083       .  S
C371        C380   1.365       .  A
C371        C372   1.387       .  A
C372        S378   1.712       .  A
C372        C373   1.401       .  A
C373        C374   1.404       .  A
C373        H382   1.083       .  S
C374        C377   1.368       .  A
S375        C376   1.718       .  A
C376        C377   1.384       .  A
C377        H383   1.083       .  S
S378        C379   1.721       .  A
C379        C380   1.386       .  A
C380        H384   1.084       .  S
C385        S391   1.707       .  A
C385        C390   1.387       .  A
C385        C386   1.403       .  A
C386        C387   1.404       .  A
C386        H397   1.083       .  S
C387        C396   1.374       .  A
C387        C388   1.387       .  A
C388        S394   1.707       .  A
C388        C389   1.403       .  A
C389        C390   1.403       .  A
C389        H398   1.083       .  S
C390        C393   1.374       .  A
S391        C392   1.725       .  A
C392        C393   1.388       .  A
C393        H399   1.083       .  S
S394        C395   1.725       .  A
C395        C396   1.388       .  A
C396        H400   1.083       .  S
C401        S407   1.715       .  A
C401        C406   1.386       .  A
C401        C402   1.405       .  A
C402        C403   1.407       .  A
C402        H413   1.082       .  S
C403        C412   1.374       .  A
C403        C404   1.388       .  A
C404        S410   1.701       .  A
C404        C405   1.396       .  A
C405        C406   1.398       .  A
C405        H414   1.082       .  S
C406        C409   1.364       .  A
S407        C408   1.724       .  A
C408        C409   1.384       .  A
C409        H415   1.083       .  S
S410        C411   1.718       .  A
C411        C412   1.387       .  A
C412        H416   1.083       .  S
C417        S423   1.721       .  A
C417        C422   1.385       .  A
C417        C418   1.410       .  A
C418        C419   1.411       .  A
C418        H429   1.082       .  S
C419        C428   1.379       .  A
C419        C420   1.387       .  A
C420        S426   1.699       .  A
C420        C421   1.395       .  A
C421        C422   1.396       .  A
C421        H430   1.083       .  S
C422        C425   1.362       .  A
S423        C424   1.728       .  A
C424        C425   1.385       .  A
C425        H431   1.084       .  S
S426        C427   1.721       .  A
C427        C428   1.392       .  A
C428        H432   1.083       .  S
C433        S439   1.701       .  A
C433        C438   1.387       .  A
C433        C434   1.394       .  A
C434        C435   1.397       .  A
C434        H445   1.084       .  S
C435        C444   1.359       .  A
C435        C436   1.385       .  A
C436        S442   1.723       .  A
C436        C437   1.408       .  A
C437        C438   1.411       .  A
C437        H446   1.083       .  S
C438        C441   1.376       .  A
S439        C440   1.719       .  A
C440        C441   1.392       .  A
C441        H447   1.083       .  S
S442        C443   1.726       .  A
C443        C444   1.385       .  A
C444        H448   1.084       .  S
C449        S455   1.712       .  A
C449        C454   1.387       .  A
C449        C450   1.410       .  A
C450        C451   1.409       .  A
C450        H461   1.083       .  S
C451        C460   1.382       .  A
C451        C452   1.388       .  A
C452        S458   1.692       .  A
C452        C453   1.395       .  A
C453        C454   1.395       .  A
C453        H462   1.083       .  S
C454        C457   1.367       .  A
S455        C456   1.729       .  A
C456        C457   1.382       .  A
C457        H463   1.083       .  S
S458        C459   1.722       .  A
C459        C460   1.390       .  A
C460        H464   1.083       .  S
C465        S471   1.706       .  A
C465        C470   1.387   1_645  A
C465        C466   1.404       .  A
C466        C467   1.404       .  A
C466        H477   1.083       .  S
C467        C476   1.377       .  A
C467        C468   1.387   1_645  A
C468        S474   1.706       .  A
C468        C469   1.405       .  A
C469        C470   1.404       .  A
C469        H478   1.083       .  S
C470        C473   1.377       .  A
S471        C472   1.726   1_545  A
C472        C473   1.389   1_655  A
C473        H479   1.083       .  S
S474        C475   1.726   1_565  A
C475        C476   1.388   1_455  A
C476        H480   1.083       .  S
C481        S487   1.709       .  A
C481        C486   1.386       .  A
C481        C482   1.405       .  A
C482        C483   1.405       .  A
C482        H493   1.083       .  S
C483        C492   1.376       .  A
C483        C484   1.387       .  A
C484        S490   1.709       .  A
C484        C485   1.405       .  A
C485        C486   1.405       .  A
C485        H494   1.083       .  S
C486        C489   1.376       .  A
S487        C488   1.726       .  A
C488        C489   1.389       .  A
C489        H495   1.083       .  S
S490        C491   1.726       .  A
C491        C492   1.389       .  A
C492        H496   1.083       .  S
C497        S503   1.706       .  A
C497        C502   1.387   1_565  A
C497        C498   1.397       .  A
C498        C499   1.400       .  A
C498        H509   1.082       .  S
C499        C508   1.364       .  A
C499        C500   1.387   1_565  A
C500        S506   1.715       .  A
C500        C501   1.404       .  A
C501        C502   1.406       .  A
C501        H510   1.082       .  S
C502        C505   1.371       .  A
S503        C504   1.718       .  A
C504        C505   1.389   1_565  A
C505        H511   1.083       .  S
S506        C507   1.722       .  A
C507        C508   1.383   1_545  A
C508        H512   1.083       .  S
C513        S519   1.716       .  A
C513        C518   1.386   1_545  A
C513        C514   1.403       .  A
C514        C515   1.406       .  A
C514        H525   1.082       .  S
C515        C524   1.369       .  A
C515        C516   1.387   1_545  A
C516        S522   1.711       .  A
C516        C517   1.399       .  A
C517        C518   1.402       .  A
C517        H526   1.082       .  S
C518        C521   1.364       .  A
S519        C520   1.723       .  A
C520        C521   1.388   1_545  A
C521        H527   1.083       .  S
S522        C523   1.718       .  A
C523        C524   1.386   1_565  A
C524        H528   1.083       .  S
C529        S535   1.707       .  A
C529        C534   1.387   1_455  A
C529        C530   1.397       .  A
C530        C531   1.400       .  A
C530        H541   1.083       .  S
C531        C540   1.362   1_455  A
C531        C532   1.385   1_455  A
C532        S538   1.724       .  A
C532        C533   1.409       .  A
C533        C534   1.411       .  A
C533        H542   1.083       .  S
C534        C537   1.376       .  A
S535        C536   1.719       .  A
C536        C537   1.391   1_455  A
C537        H543   1.083       .  S
S538        C539   1.727       .  A
C539        C540   1.389       .  A
C540        H544   1.084   1_655  S
C545        S551   1.722       .  A
C545        C550   1.385       .  A
C545        C546   1.411       .  A
C546        C547   1.412   1_455  A
C546        H557   1.082       .  S
C547        C556   1.380       .  A
C547        C548   1.388       .  A
C548        S554   1.700       .  A
C548        C549   1.395       .  A
C549        C550   1.397   1_655  A
C549        H558   1.083       .  S
C550        C553   1.363       .  A
S551        C552   1.728       .  A
C552        C553   1.384       .  A
C553        H559   1.083       .  S
S554        C555   1.716       .  A
C555        C556   1.391       .  A
C556        H560   1.083       .  S
