geometry optimzed in LAMMPS
_audit_creation_date              2020-12-01 
_audit_creation_method            'lammps2cif' 
_symmetry_space_group_name_H-M    'P1' 
_symmetry_Int_Tables_number       1 
_symmetry_cell_setting            triclinic 
loop_ 
_symmetry_equiv_pos_as_xyz 
  x,y,z 
_cell_length_a                    32.7540859 
_cell_length_b                    32.748106123160035 
_cell_length_c                    35.899392996998294 
_cell_angle_alpha                 90.00500138652431 
_cell_angle_beta                  90.00020414560096 
_cell_angle_gamma                 89.9992040412403 
loop_ 
_atom_site_label 
_atom_site_type_symbol 
_atom_site_fract_x 
_atom_site_fract_y 
_atom_site_fract_z 
_atom_site_charge 
O1          O  0.44990699  0.72173657  0.06982547    -0.80100
C2          C  0.36523692  0.67162141  0.19877849     0.99300
O3          O  0.34885290  0.67628237  0.16714903    -0.69200
O4          O  0.36016289  0.74701310  0.13592049    -0.72800
Al5        Al  0.37096915  0.69337647  0.11982480     1.49000
C6          C  0.37960663  0.77899826  0.12868452     0.94500
O7          O  0.46691951  0.75090965  0.17124057    -0.79000
O8          O  0.48180441  0.63836066  0.13108626    -0.72600
Al9        Al  0.45681592  0.73414273  0.12092340     1.90100
O10         O  0.47886986  0.68908591  0.19204615    -0.71600
O11         O  0.40758773  0.61190146  0.14720974    -0.71500
O12         O  0.40326965  0.66850648  0.20250704    -0.77100
O13         O  0.37308518  0.63890046  0.10138405    -0.75300
O14         O  0.42283164  0.69423203  0.13513468    -1.11500
O15         O  0.38350263  0.71035796  0.06988617    -0.70700
C16         C  0.41669307  0.71641286  0.05272595     1.00100
C17         C  0.48023970  0.72728038  0.19618156     0.96400
Al18       Al  0.44130166  0.65529104  0.16540406     1.55600
O19         O  0.41646216  0.77736563  0.11853448    -0.75300
C20         C  0.38385421  0.60817919  0.11987592     1.00600
C21         C  0.51016045  0.66144152  0.12020216     0.95500
O22         O  0.50546952  0.69989135  0.11957160    -0.80600
O23         O  0.50523464  0.69970649  0.87236687    -0.80100
C24         C  0.36500674  0.67149397  0.79317292     0.99300
O25         O  0.40304540  0.66846258  0.78942998    -0.69200
O26         O  0.47869379  0.68891645  0.79987991    -0.72800
Al27       Al  0.44107442  0.65515014  0.82650292     1.49000
C28         C  0.48007679  0.72710304  0.79571707     0.94500
O29         O  0.41624349  0.77717926  0.87336012    -0.79000
O30         O  0.38331700  0.71013721  0.92211847    -0.72600
Al31       Al  0.45659581  0.73397520  0.87099336     1.90100
O32         O  0.35988713  0.74681511  0.85611932    -0.71600
O33         O  0.37295006  0.63862579  0.89057826    -0.71500
O34         O  0.34862174  0.67604881  0.82482280    -0.77100
O35         O  0.40733615  0.61173837  0.84462607    -0.75300
O36         O  0.42261103  0.69405930  0.85681091    -1.11500
O37         O  0.48158073  0.63817042  0.86081926    -0.70700
C38         C  0.50993517  0.66125582  0.87172182     1.00100
C39         C  0.37937407  0.77881056  0.86326015     0.96400
Al40       Al  0.37075737  0.69314839  0.87216787     1.55600
O41         O  0.46672001  0.75073927  0.82064607    -0.75300
C42         C  0.38368785  0.60793589  0.87201041     1.00600
C43         C  0.41652315  0.71626986  0.93923627     0.95500
O44         O  0.44970258  0.72161235  0.92209402    -0.80600
O45         O  0.73598221  0.54444735  0.06986701    -0.80100
C46         C  0.68595210  0.62921950  0.19880890     0.99300
O47         O  0.69060497  0.64559360  0.16717316    -0.69200
O48         O  0.76130296  0.63422771  0.13591337    -0.72800
Al49       Al  0.70766149  0.62344040  0.11984527     1.49000
C50         C  0.79327176  0.61475122  0.12869608     0.94500
O51         O  0.76514083  0.52746430  0.17128458    -0.79000
O52         O  0.65259480  0.51262798  0.13116310    -0.72600
Al53       Al  0.74837756  0.53755378  0.12096721     1.90100
O54         O  0.70332731  0.51555339  0.19210446    -0.71600
O55         O  0.62618985  0.58687760  0.14727807    -0.71500
O56         O  0.68281385  0.59118405  0.20254680    -0.77100
O57         O  0.65318043  0.62134801  0.10142883    -0.75300
O58         O  0.70849482  0.57157566  0.13517341    -1.11500
O59         O  0.72461555  0.61086599  0.06990238    -0.70700
C60         C  0.73067224  0.57765928  0.05275448     1.00100
C61         C  0.74151347  0.51417253  0.19623648     0.96400
Al62       Al  0.66955934  0.55314045  0.16546274     1.55600
O63         O  0.79161759  0.57788331  0.11856504    -0.75300
C64         C  0.62246525  0.61059691  0.11993411     1.00600
C65         C  0.67565078  0.48424834  0.12027710     0.95500
O66         O  0.71409706  0.48891449  0.11963322    -0.80600
O67         O  0.71409760  0.48900979  0.87240931    -0.80100
C68         C  0.68591747  0.62922431  0.79317462     0.99300
O69         O  0.68286487  0.59117757  0.78944865    -0.69200
O70         O  0.70330031  0.51551595  0.79993159    -0.72800
Al71       Al  0.66955163  0.55316659  0.82654213     1.49000
C72         C  0.74147829  0.51413158  0.79575428     0.94500
O73         O  0.79156897  0.57800454  0.87338399    -0.79000
O74         O  0.72453313  0.61097232  0.92213020    -0.72600
Al75       Al  0.74836411  0.53765274  0.87102390     1.90100
O76         O  0.76122802  0.63437065  0.85612572    -0.71600
O77         O  0.65305401  0.62134795  0.89058462    -0.71500
O78         O  0.69048116  0.64562966  0.82481723    -0.77100
O79         O  0.62615732  0.58693258  0.84465452    -0.75300
O80         O  0.70846180  0.57164409  0.85683529    -1.11500
O81         O  0.65257247  0.51267569  0.86088113    -0.70700
C82         C  0.67565374  0.48431264  0.87177547     1.00100
C83         C  0.79321212  0.61487753  0.86327938     0.96400
Al84       Al  0.70756421  0.62351513  0.87217336     1.55600
O85         O  0.76511946  0.52750451  0.82067129    -0.75300
C86         C  0.62236653  0.61060629  0.87202662     1.00600
C87         C  0.73064492  0.57776510  0.93925920     0.95500
O88         O  0.73599660  0.54457190  0.92212643    -0.80600
O89         O  0.55875006  0.25835567  0.06986714    -0.80100
C90         C  0.64344640  0.30844304  0.19883003     0.99300
O91         O  0.65981460  0.30383646  0.16718595    -0.69200
O92         O  0.64852031  0.23309690  0.13593422    -0.72800
Al93       Al  0.63768584  0.28673973  0.11986280     1.49000
C94         C  0.62907523  0.20110563  0.12870774     0.94500
O95         O  0.54176518  0.22915349  0.17126550    -0.79000
O96         O  0.52687958  0.34173134  0.13120704    -0.72600
Al97       Al  0.55185441  0.24594644  0.12096291     1.90100
O98         O  0.52980144  0.29095707  0.19211443    -0.71600
O99         O  0.60109333  0.36817499  0.14735298    -0.71500
O100        O  0.60541214  0.31150005  0.20258463    -0.77100
O101        O  0.63551903  0.34122867  0.10144856    -0.75300
O102        O  0.58583461  0.28585395  0.13519124    -1.11500
O103        O  0.62514813  0.26975554  0.06992252    -0.70700
C104        C  0.59196215  0.26366746  0.05276452     1.00100
C105        C  0.52845090  0.25276098  0.19622560     0.96400
Al106      Al  0.56737551  0.32476551  0.16550406     1.55600
O107        O  0.59221654  0.20273141  0.11856314    -0.75300
C108        C  0.62478139  0.37193126  0.11999037     1.00600
C109        C  0.49852716  0.31866526  0.12028677     0.95500
O110        O  0.50320523  0.28021214  0.11962778    -0.80600
O111        O  0.50346529  0.28009660  0.87240518    -0.80100
C112        C  0.64368495  0.30824666  0.79320021     0.99300
O113        O  0.60564826  0.31133719  0.78947240    -0.69200
O114        O  0.52999113  0.29091059  0.79992453    -0.72800
Al115      Al  0.56762703  0.32465478  0.82655516     1.49000
C116        C  0.52858427  0.25272745  0.79574122     0.94500
O117        O  0.59243800  0.20260198  0.87336988    -0.79000
O118        O  0.62537764  0.26968689  0.92215972    -0.72600
Al119      Al  0.55209618  0.24581973  0.87101501     1.90100
O120        O  0.64881151  0.23295811  0.85617811    -0.71600
O121        O  0.63578686  0.34115696  0.89060338    -0.71500
O122        O  0.66007982  0.30368576  0.82484531    -0.77100
O123        O  0.60137644  0.36805657  0.84468064    -0.75300
O124        O  0.58608939  0.28573252  0.85684669    -1.11500
O125        O  0.52712303  0.34163533  0.86088563    -0.70700
C126        C  0.49876351  0.31854685  0.87177305     1.00100
C127        C  0.62931821  0.20096638  0.86330353     0.96400
Al128      Al  0.63794726  0.28663169  0.87220323     1.55600
O129        O  0.54195216  0.22907377  0.82065203    -0.75300
C130        C  0.62504223  0.37184968  0.87205249     1.00600
C131        C  0.59216728  0.26356147  0.93927143     0.95500
O132        O  0.55899762  0.25817484  0.92212230    -0.80600
O133        O  0.27270819  0.43559929  0.06981772    -0.80100
C134        C  0.32282432  0.35099929  0.19881825     0.99300
O135        O  0.31819019  0.33459934  0.16718914    -0.69200
O136        O  0.24745901  0.34585815  0.13594139    -0.72800
Al137      Al  0.30109049  0.35668525  0.11985389     1.49000
C138        C  0.21547256  0.36529384  0.12869335     0.94500
O139        O  0.24351853  0.45263785  0.17121905    -0.79000
O140        O  0.35605517  0.46753715  0.13109119    -0.72600
Al141      Al  0.26029663  0.44252714  0.12091182     1.90100
O142        O  0.30531851  0.46465164  0.19202814    -0.71600
O143        O  0.38252261  0.39332952  0.14727760    -0.71500
O144        O  0.32589706  0.38904366  0.20254346    -0.77100
O145        O  0.35556150  0.35882927  0.10142599    -0.75300
O146        O  0.30020759  0.40855919  0.13514682    -1.11500
O147        O  0.28410938  0.36918722  0.06990857    -0.70700
C148        C  0.27803352  0.40236905  0.05273309     1.00100
C149        C  0.26713044  0.46597799  0.19616296     0.96400
Al150      Al  0.33912355  0.42705883  0.16542668     1.55600
O151        O  0.21709694  0.40215038  0.11852718    -0.75300
C152        C  0.38626460  0.36959429  0.11994260     1.00600
C153        C  0.33297806  0.49588713  0.12018414     0.95500
O154        O  0.29453365  0.49119745  0.11955275    -0.80600
O155        O  0.29462838  0.49078531  0.87235434    -0.80100
C156        C  0.32268470  0.35049262  0.79317643     0.99300
O157        O  0.32580908  0.38853164  0.78944566    -0.69200
O158        O  0.30541656  0.46420980  0.79987550    -0.72800
Al159      Al  0.33914052  0.42656596  0.82651658     1.49000
C160        C  0.26723993  0.46562200  0.79569663     0.94500
O161        O  0.21709674  0.40184983  0.87335253    -0.79000
O162        O  0.28414680  0.36887261  0.92213662    -0.72600
Al163      Al  0.26033146  0.44216460  0.87098190     1.90100
O164        O  0.24740750  0.34544218  0.85615983    -0.71600
O165        O  0.35560306  0.35839105  0.89057113    -0.71500
O166        O  0.31811028  0.33410477  0.82482291    -0.77100
O167        O  0.38251678  0.39279965  0.84465285    -0.75300
O168        O  0.30021625  0.40813384  0.85681617    -1.11500
O169        O  0.35614061  0.46708331  0.86083230    -0.70700
C170        C  0.33307411  0.49546436  0.87171900     1.00100
C171        C  0.21543549  0.36496588  0.86328124     0.96400
Al172      Al  0.30108000  0.35626960  0.87217948     1.55600
O173        O  0.24358936  0.45229066  0.82062249    -0.75300
C174        C  0.38629836  0.36913244  0.87202588     1.00600
C175        C  0.27803721  0.40209916  0.93924143     0.95500
O176        O  0.27268241  0.43527421  0.92208658    -0.80600
O177        O  0.73606325  0.43567021  0.42211005    -0.80100
C178        C  0.68599264  0.35100590  0.29312702     0.99300
O179        O  0.69067364  0.33460895  0.32474837    -0.69200
O180        O  0.76138299  0.34594098  0.35600484    -0.72800
Al181      Al  0.70773655  0.35671773  0.37208388     1.49000
C182        C  0.79335459  0.36541079  0.36322844     0.94500
O183        O  0.76518827  0.45274039  0.32069365    -0.79000
O184        O  0.65265526  0.46753949  0.36086735    -0.72600
Al185      Al  0.74844558  0.44260798  0.37101076     1.90100
O186        O  0.70336284  0.46467117  0.29990815    -0.71600
O187        O  0.62624300  0.39329293  0.34469878    -0.71500
O188        O  0.68284691  0.38904441  0.28941226    -0.77100
O189        O  0.65325768  0.35878174  0.39050924    -0.75300
O190        O  0.70855916  0.40859590  0.35679239    -1.11500
O191        O  0.72469080  0.36925201  0.42202706    -0.70700
C192        C  0.73074377  0.40244353  0.43919748     1.00100
C193        C  0.74154719  0.46605538  0.29576144     0.96400
Al194      Al  0.66960712  0.42705634  0.32653088     1.55600
O195        O  0.79169666  0.40227475  0.37337605    -0.75300
C196        C  0.62253439  0.36952962  0.37201352     1.00600
C197        C  0.67571362  0.49591909  0.37174916     0.95500
O198        O  0.71416108  0.49125047  0.37238356    -0.80600
O199        O  0.71407367  0.49088752  0.61958528    -0.80100
C200        C  0.68602116  0.35058643  0.69874980     0.99300
O201        O  0.68289834  0.38862601  0.70248593    -0.69200
O202        O  0.70330263  0.46430140  0.69206085    -0.72800
Al203      Al  0.66956951  0.42666167  0.66542060     1.49000
C204        C  0.74148080  0.46572709  0.69622672     0.94500
O205        O  0.79162004  0.40193590  0.61856198    -0.79000
O206        O  0.72453875  0.36896710  0.56978500    -0.72600
Al207      Al  0.74837612  0.44225774  0.62094590     1.90100
O208        O  0.76131351  0.34552662  0.63574040    -0.71600
O209        O  0.65309044  0.35846797  0.60137289    -0.71500
O210        O  0.69061322  0.33419827  0.66710299    -0.77100
O211        O  0.62618325  0.39289249  0.64728876    -0.75300
O212        O  0.70849180  0.40822640  0.63511422    -1.11500
O213        O  0.65256570  0.46718419  0.63111528    -0.70700
C214        C  0.67562673  0.49556943  0.62023299     1.00100
C215        C  0.79328684  0.36504552  0.62861377     0.96400
Al216      Al  0.70762636  0.35636007  0.61974446     1.55600
O217        O  0.76512785  0.45238989  0.67129935    -0.75300
C218        C  0.62239772  0.36919974  0.61992995     1.00600
C219        C  0.73065883  0.40219209  0.55268607     0.95500
O220        O  0.73601858  0.43536640  0.56984479    -0.80600
O221        O  0.55870293  0.72181529  0.42205404    -0.80100
C222        C  0.64344851  0.67171733  0.29313076     0.99300
O223        O  0.65981709  0.67636952  0.32476938    -0.69200
O224        O  0.64849009  0.74708270  0.35603978    -0.72800
Al225      Al  0.63766967  0.69343398  0.37209430     1.49000
C226        C  0.62902909  0.77907234  0.36322944     0.94500
O227        O  0.54171412  0.75095028  0.32062764    -0.79000
O228        O  0.52685368  0.63839571  0.36075491    -0.72600
Al229      Al  0.55181171  0.73419663  0.37094913     1.90100
O230        O  0.52980319  0.68912096  0.29981507    -0.71600
O231        O  0.60109080  0.61195366  0.34465206    -0.71500
O232        O  0.60541937  0.66858446  0.28938567    -0.77100
O233        O  0.63555560  0.63894458  0.39050562    -0.75300
O234        O  0.58581477  0.69428899  0.35675322    -1.11500
O235        O  0.62509838  0.71038804  0.42203393    -0.70700
C236        C  0.59189945  0.71646636  0.43917417     1.00100
C237        C  0.52841075  0.72731256  0.29568310     0.96400
Al238      Al  0.56737250  0.65534448  0.32646354     1.55600
O239        O  0.59215759  0.77743885  0.37333641    -0.75300
C240        C  0.62480829  0.60822489  0.37199588     1.00600
C241        C  0.49848300  0.66146358  0.37163679     0.95500
O242        O  0.50316459  0.69991716  0.37229085    -0.80600
O243        O  0.50328850  0.69976512  0.61952436    -0.80100
C244        C  0.64350081  0.67161401  0.69874995     0.99300
O245        O  0.60546256  0.66854022  0.70247596    -0.69200
O246        O  0.52980891  0.68896848  0.69199570    -0.72800
Al247      Al  0.56745448  0.65522007  0.66538257     1.49000
C248        C  0.52842068  0.72715219  0.69618034     0.94500
O249        O  0.59226839  0.77727951  0.61855460    -0.79000
O250        O  0.62521657  0.71019982  0.56979051    -0.72600
Al251      Al  0.55192441  0.73405235  0.62091293     1.90100
O252        O  0.64863440  0.74693117  0.63577865    -0.71600
O253        O  0.63563216  0.63871118  0.60135125    -0.71500
O254        O  0.65989850  0.67618788  0.66710814    -0.77100
O255        O  0.60122033  0.61181525  0.64727430    -0.75300
O256        O  0.58591890  0.69414196  0.63509157    -1.11500
O257        O  0.52696736  0.63823336  0.63104357    -0.70700
C258        C  0.49859945  0.66131100  0.62015554     1.00100
C259        C  0.62914650  0.77892325  0.62863216     0.96400
Al260      Al  0.63777832  0.69324744  0.61974853     1.55600
O261        O  0.54178465  0.75080318  0.67126834    -0.75300
C262        C  0.62490557  0.60801911  0.61991573     1.00600
C263        C  0.59201301  0.71633687  0.55266899     0.95500
O264        O  0.55883236  0.72169602  0.56980792    -0.80600
O265        O  0.27264757  0.54436573  0.42204030    -0.80100
C266        C  0.32270318  0.62908695  0.29308922     0.99300
O267        O  0.31805055  0.64546920  0.32472450    -0.69200
O268        O  0.24735031  0.63414058  0.35600584    -0.72800
Al269      Al  0.30099964  0.62333613  0.37205884     1.49000
C270        C  0.21537247  0.61467052  0.36320330     0.94500
O271        O  0.24349185  0.52735094  0.32063649    -0.79000
O272        O  0.35604436  0.51250756  0.36074123    -0.72600
Al273      Al  0.26025902  0.53745740  0.37094500     1.90100
O274        O  0.30530019  0.51541968  0.29981336    -0.71600
O275        O  0.38246261  0.58676058  0.34460191    -0.71500
O276        O  0.32581969  0.59104823  0.28935082    -0.77100
O277        O  0.35549146  0.62124047  0.39045901    -0.75300
O278        O  0.30014983  0.57146682  0.35673344    -1.11500
O279        O  0.28405687  0.61077663  0.42200663    -0.70700
C280        C  0.27797415  0.57757668  0.43915251     1.00100
C281        C  0.26711352  0.51404391  0.29568709     0.96400
Al282      Al  0.33907784  0.55301402  0.32643915     1.55600
O283        O  0.21701910  0.57780122  0.37333114    -0.75300
C284        C  0.38619885  0.61050286  0.37193292     1.00600
C285        C  0.33298978  0.48413186  0.37163546     0.95500
O286        O  0.29454196  0.48880608  0.37229024    -0.80600
O287        O  0.29452004  0.48886540  0.61945296    -0.80100
C288        C  0.32265433  0.62906713  0.69873673     0.99300
O289        O  0.32579693  0.59102394  0.70242813    -0.69200
O290        O  0.30536463  0.51536475  0.69192271    -0.72800
Al291      Al  0.33908087  0.55303367  0.66530179     1.49000
C292        C  0.26719002  0.51396940  0.69612924     0.94500
O293        O  0.21699723  0.57782300  0.61852234    -0.79000
O294        O  0.28402739  0.61085191  0.56978613    -0.72600
Al295      Al  0.26023690  0.53749932  0.62086585     1.90100
O296        O  0.24729966  0.63420091  0.63579558    -0.71600
O297        O  0.35548890  0.62131529  0.60133216    -0.71500
O298        O  0.31802577  0.64549104  0.66711394    -0.77100
O299        O  0.38244730  0.58682192  0.64717521    -0.75300
O300        O  0.30013036  0.57151049  0.63505021    -1.11500
O301        O  0.35604377  0.51255747  0.63092904    -0.70700
C302        C  0.33296542  0.48417918  0.62005971     1.00100
C303        C  0.21532812  0.61469756  0.62862374     0.96400
Al304      Al  0.30097507  0.62339427  0.61974649     1.55600
O305        O  0.24352019  0.52733204  0.67122901    -0.75300
C306        C  0.38619987  0.61055800  0.61984803     1.00600
C307        C  0.27793189  0.57764677  0.55264400     0.95500
O308        O  0.27258299  0.54444456  0.56976086    -0.80600
O309        O  0.45000699  0.25820643  0.42208047    -0.80100
C310        C  0.36538219  0.30838364  0.29311098     0.99300
O311        O  0.34899269  0.30373263  0.32474026    -0.69200
O312        O  0.36026108  0.23298357  0.35598662    -0.72800
Al313      Al  0.37109121  0.28663142  0.37207193     1.49000
C314        C  0.37970403  0.20098589  0.36319317     0.94500
O315        O  0.46704317  0.22907442  0.32066696    -0.79000
O316        O  0.48191635  0.34162559  0.36082255    -0.72600
Al317      Al  0.45692834  0.24583194  0.37097944     1.90100
O318        O  0.47902357  0.29089554  0.29987879    -0.71600
O319        O  0.40770077  0.36809123  0.34464709    -0.71500
O320        O  0.40341877  0.31145353  0.28938136    -0.77100
O321        O  0.37322247  0.34112475  0.39050070    -0.75300
O322        O  0.42295363  0.28575348  0.35676709    -1.11500
O323        O  0.38361324  0.26964605  0.42201360    -0.70700
C324        C  0.41679236  0.26353409  0.43917668     1.00100
C325        C  0.48037593  0.25270339  0.29573511     0.96400
Al326      Al  0.44143399  0.32468720  0.32649285     1.55600
O327        O  0.41656438  0.20260889  0.37333518    -0.75300
C328        C  0.38396244  0.37183524  0.37197537     1.00600
C329        C  0.51027449  0.31854984  0.37171451     0.95500
O330        O  0.50558663  0.28009624  0.37235464    -0.80600
O331        O  0.50526700  0.28004582  0.61956207    -0.80100
C332        C  0.36498310  0.30816198  0.69871213     0.99300
O333        O  0.40301422  0.31130285  0.70244096    -0.69200
O334        O  0.47867296  0.29087800  0.69203362    -0.72800
Al335      Al  0.44104703  0.32459747  0.66536756     1.49000
C336        C  0.48011107  0.25269588  0.69621866     0.94500
O337        O  0.41632478  0.20249365  0.61856402    -0.79000
O338        O  0.38335590  0.26953359  0.56977457    -0.72600
Al339      Al  0.45664264  0.24574452  0.62093512     1.90100
O340        O  0.35993237  0.23281321  0.63575875    -0.71600
O341        O  0.37286592  0.34100959  0.60131026    -0.71500
O342        O  0.34859721  0.30354768  0.66706987    -0.77100
O343        O  0.40729239  0.36797093  0.64719742    -0.75300
O344        O  0.42261639  0.28564258  0.63508761    -1.11500
O345        O  0.48156934  0.34157414  0.63105441    -0.70700
C346        C  0.50995337  0.31849896  0.62019458     1.00100
C347        C  0.37944141  0.20083263  0.62862140     0.96400
Al348      Al  0.37075742  0.28649037  0.61972339     1.55600
O349        O  0.46677685  0.22902299  0.67130369    -0.75300
C350        C  0.38361069  0.37172649  0.61983280     1.00600
C351        C  0.41657640  0.26343519  0.55266924     0.95500
O352        O  0.44974889  0.25808437  0.56982444    -0.80600
O353        O  0.95001270  0.22168437  0.56985330    -0.80100
C354        C  0.86531528  0.17159355  0.69880723     0.99300
O355        O  0.84894063  0.17621108  0.66716636    -0.69200
O356        O  0.86023329  0.24694043  0.63589671    -0.72800
Al357      Al  0.87106852  0.19328895  0.61983521     1.49000
C358        C  0.87968043  0.27893380  0.62868895     0.94500
O359        O  0.96700959  0.25085326  0.67126099    -0.79000
O360        O  0.98186559  0.13827409  0.63116004    -0.72600
Al361      Al  0.95691050  0.23407522  0.62095216     1.90100
O362        O  0.97896757  0.18903916  0.69207574    -0.71600
O363        O  0.90763489  0.11184170  0.64732202    -0.71500
O364        O  0.90334983  0.16852546  0.70255398    -0.77100
O365        O  0.87321199  0.13879008  0.60142465    -0.75300
O366        O  0.92292151  0.19416843  0.63516485    -1.11500
O367        O  0.88361862  0.21025464  0.56989226    -0.70700
C368        C  0.91680761  0.21635801  0.55274274     1.00100
C369        C  0.98033333  0.22723270  0.69620294     0.96400
Al370      Al  0.94137550  0.15524801  0.66546619     1.55600
O371        O  0.91654916  0.27730649  0.61856881    -0.75300
C372        C  0.88392701  0.10808712  0.61997221     1.00600
C373        C  0.01023367  0.16133260  0.62026026     0.95500
O374        O  0.00556110  0.19978945  0.61960444    -0.80600
O375        O  0.00533989  0.19987093  0.37236519    -0.80100
C376        C  0.86507274  0.17174799  0.29319720     0.99300
O377        O  0.90310587  0.16862481  0.28946457    -0.69200
O378        O  0.97876868  0.18904144  0.29988964    -0.72800
Al379      Al  0.94113518  0.15532102  0.32654212     1.49000
C380        C  0.98019832  0.22722295  0.29570301     0.94500
O381        O  0.91639140  0.27741787  0.37334496    -0.79000
O382        O  0.88342873  0.21036256  0.42213864    -0.72600
Al383      Al  0.95671576  0.23417092  0.37098422     1.90100
O384        O  0.86000278  0.24708696  0.35615708    -0.71600
O385        O  0.87296205  0.13888801  0.39059641    -0.71500
O386        O  0.84868799  0.17635097  0.32484112    -0.77100
O387        O  0.90737573  0.11194265  0.34469388    -0.75300
O388        O  0.92269777  0.19426947  0.35682631    -1.11500
O389        O  0.98164949  0.13834109  0.36086156    -0.70700
C390        C  0.01002800  0.16141793  0.37173084     1.00100
C391        C  0.87950840  0.27907227  0.36328439     0.96400
Al392      Al  0.87083974  0.19340942  0.37218874     1.55600
O393        O  0.96685669  0.25089392  0.32061631    -0.75300
C394        C  0.88369452  0.10817823  0.37205755     1.00600
C395        C  0.91664451  0.21646750  0.43924823     0.95500
O396        O  0.94981693  0.22183147  0.42209651    -0.80600
O397        O  0.05866801  0.75807578  0.56974671    -0.80100
C398        C  0.14337135  0.80822914  0.69867893     0.99300
O399        O  0.15974860  0.80354503  0.66704890    -0.69200
O400        O  0.14841844  0.73280970  0.63581959    -0.72800
Al401      Al  0.13761902  0.78645014  0.61972894     1.49000
C402        C  0.12895919  0.70082125  0.62862329     0.94500
O403        O  0.04164010  0.72897504  0.67117632    -0.79000
O404        O  0.02679862  0.84151306  0.63100469    -0.72600
Al405      Al  0.05175454  0.74570823  0.62085293     1.90100
O406        O  0.02972823  0.79081438  0.69196801    -0.71600
O407        O  0.10103621  0.86795165  0.64711331    -0.71500
O408        O  0.10534052  0.81136055  0.70241242    -0.77100
O409        O  0.13552415  0.84092727  0.60128884    -0.75300
O410        O  0.08575666  0.78561583  0.63504853    -1.11500
O411        O  0.12506994  0.76946671  0.56979466    -0.70700
C412        C  0.09187718  0.76340329  0.55264078     1.00100
C413        C  0.02833614  0.75262378  0.69611258     0.96400
Al414      Al  0.06730636  0.82457821  0.66531468     1.55600
O415        O  0.09209674  0.70245877  0.61848847    -0.75300
C416        C  0.12477575  0.87165829  0.61978281     1.00600
C417        C  0.99842593  0.81844207  0.62013448     0.95500
O418        O  0.00310870  0.77998889  0.61949089    -0.80600
O419        O  0.00334333  0.78016280  0.37227612    -0.80100
C420        C  0.14358278  0.80830948  0.29308553     0.99300
O421        O  0.10554559  0.81137598  0.28935143    -0.69200
O422        O  0.02989100  0.79095116  0.29980895    -0.72800
Al423      Al  0.06752843  0.82469917  0.32643372     1.49000
C424        C  0.02849411  0.75276645  0.29563055     0.94500
O425        O  0.09232299  0.70264350  0.37327146    -0.79000
O426        O  0.12526167  0.76969442  0.42203528    -0.72600
Al427      Al  0.05197879  0.74587052  0.37090040     1.90100
O428        O  0.14868895  0.73298803  0.35604027    -0.71600
O429        O  0.13568055  0.84119384  0.39049269    -0.71500
O430        O  0.15997251  0.80373891  0.32473168    -0.77100
O431        O  0.10129156  0.86809948  0.34455794    -0.75300
O432        O  0.08597996  0.78577631  0.35672850    -1.11500
O433        O  0.02703233  0.84169031  0.36076019    -0.70700
C434        C  0.99865936  0.81861779  0.37164331     1.00100
C435        C  0.12920170  0.70099858  0.36319518     0.96400
Al436      Al  0.13783521  0.78666465  0.37208277     1.55600
O437        O  0.04185108  0.72911652  0.32054639    -0.75300
C438        C  0.12496132  0.87188983  0.37192936     1.00600
C439        C  0.09205186  0.76356511  0.43914913     0.95500
O440        O  0.05887282  0.75822814  0.42200320    -0.80600
O441        O  0.77258975  0.93557476  0.56985281    -0.80100
C442        C  0.82265418  0.85080890  0.69876930     0.99300
O443        O  0.81797683  0.83443077  0.66713566    -0.69200
O444        O  0.74728106  0.84578883  0.63586398    -0.72800
Al445      Al  0.80093057  0.85658002  0.61980854     1.49000
C446        C  0.71530646  0.86526840  0.62867726     0.94500
O447        O  0.74347874  0.95257988  0.67127874    -0.79000
O448        O  0.85601682  0.96739365  0.63112746    -0.72600
Al449      Al  0.76021871  0.94247529  0.62095637     1.90100
O450        O  0.80530437  0.96447845  0.69207654    -0.71600
O451        O  0.88242273  0.89313024  0.64723650    -0.71500
O452        O  0.82580623  0.88884394  0.70250871    -0.77100
O453        O  0.85541741  0.85865073  0.60139783    -0.75300
O454        O  0.80010523  0.90844773  0.63514514    -1.11500
O455        O  0.78399034  0.86916141  0.56986763    -0.70700
C456        C  0.77792185  0.90236944  0.55273091     1.00100
C457        C  0.76712065  0.96587637  0.69621909     0.96400
Al458      Al  0.83905588  0.92688156  0.66542572     1.55600
O459        O  0.71696038  0.90214506  0.61857122    -0.75300
C460        C  0.88613830  0.86938829  0.61990365     1.00600
C461        C  0.83296392  0.99578289  0.62025879     0.95500
O462        O  0.79451511  0.99111701  0.61961301    -0.80600
O463        O  0.79455802  0.99105701  0.37240568    -0.80100
C464        C  0.82268623  0.85083547  0.29313519     0.99300
O465        O  0.82577849  0.88888061  0.28942405    -0.69200
O466        O  0.80534889  0.96454488  0.29992649    -0.72800
Al467      Al  0.83909187  0.92688532  0.32653123     1.49000
C468        C  0.76717079  0.96593561  0.29574674     0.94500
O469        O  0.71705417  0.90207813  0.37337552    -0.79000
O470        O  0.78410649  0.86908901  0.42210145    -0.72600
Al471      Al  0.76027802  0.94241793  0.37101375     1.90100
O472        O  0.74737456  0.84570472  0.35610626    -0.71600
O473        O  0.85556983  0.85866194  0.39053434    -0.71500
O474        O  0.81810086  0.83442636  0.32477067    -0.77100
O475        O  0.88248116  0.89310330  0.34463539    -0.75300
O476        O  0.80017211  0.90841388  0.35681638    -1.11500
O477        O  0.85607652  0.96737147  0.36088211    -0.70700
C478        C  0.83300387  0.99574440  0.37177521     1.00100
C479        C  0.71539703  0.86520127  0.36327630     0.96400
Al480      Al  0.80104980  0.85653887  0.37213819     1.55600
O481        O  0.74352497  0.95257133  0.32066238    -0.75300
C482        C  0.88626203  0.86939490  0.37198056     1.00600
C483        C  0.77799567  0.90229544  0.43923798     0.95500
O484        O  0.77264618  0.93549183  0.42211421    -0.80600
O485        O  0.23603757  0.04421408  0.56973065    -0.80100
C486        C  0.18595931  0.12881639  0.69875733     0.99300
O487        O  0.19060958  0.14521918  0.66713414    -0.69200
O488        O  0.26131858  0.13393715  0.63585339    -0.72800
Al489      Al  0.20767256  0.12313385  0.61978637     1.49000
C490        C  0.29329967  0.11448388  0.62862313     0.94500
O491        O  0.26520507  0.02713529  0.67112755    -0.79000
O492        O  0.15266049  0.01229594  0.63099611    -0.72600
Al493      Al  0.24843507  0.03726887  0.62082359     1.90100
O494        O  0.20339923  0.01515331  0.69193253    -0.71600
O495        O  0.12621740  0.08652458  0.64721079    -0.71500
O496        O  0.18285482  0.09077317  0.70247017    -0.77100
O497        O  0.15318607  0.12103693  0.60137894    -0.75300
O498        O  0.20853524  0.07125495  0.63506581    -1.11500
O499        O  0.22462232  0.11062458  0.56983371    -0.70700
C500        C  0.23070588  0.07744418  0.55265311     1.00100
C501        C  0.24158650  0.01380273  0.69606673     0.96400
Al502      Al  0.16961039  0.05276744  0.66534191     1.55600
O503        O  0.29166039  0.07762437  0.61846088    -0.75300
C504        C  0.12248046  0.11029084  0.61990056     1.00600
C505        C  0.17572470  0.98393337  0.62008604     0.95500
O506        O  0.21417125  0.98861178  0.61944513    -0.80600
O507        O  0.21411809  0.98901346  0.37227439    -0.80100
C508        C  0.18605738  0.12930272  0.29311430     0.99300
O509        O  0.18290745  0.09126445  0.28938801    -0.69200
O510        O  0.20330233  0.01558805  0.29981329    -0.72800
Al511      Al  0.16959339  0.05324075  0.32646547     1.49000
C512        C  0.24147700  0.01416679  0.29561923     0.94500
O513        O  0.29167713  0.07795533  0.37326796    -0.79000
O514        O  0.22462093  0.11093935  0.42206425    -0.72600
Al515      Al  0.24842498  0.03763897  0.37089869     1.90100
O516        O  0.26136942  0.13436410  0.35609116    -0.71600
O517        O  0.15316821  0.12145440  0.39050552    -0.71500
O518        O  0.19066602  0.14569881  0.32475530    -0.77100
O519        O  0.12622624  0.08702074  0.34461339    -0.75300
O520        O  0.20853814  0.07167506  0.35674731    -1.11500
O521        O  0.15260505  0.01273054  0.36078810    -0.70700
C522        C  0.17566984  0.98433850  0.37165032     1.00100
C523        C  0.29334277  0.11484612  0.36321628     0.96400
Al524      Al  0.20769195  0.12354388  0.37211002     1.55600
O525        O  0.26514448  0.02750337  0.32053254    -0.75300
C526        C  0.12246243  0.11071939  0.37196979     1.00600
C527        C  0.23072875  0.07771234  0.43916392     0.95500
O528        O  0.23608850  0.04453671  0.42200558    -0.80600
O529        O  0.79458801  0.98912839  0.11956281    -0.80100
C530        C  0.82269221  0.12940300  0.19875767     0.99300
O531        O  0.82577951  0.09136076  0.20248908    -0.69200
O532        O  0.80536193  0.01569187  0.19203752    -0.72800
Al533      Al  0.83910824  0.05332906  0.16541394     1.49000
C534        C  0.76718319  0.01429399  0.19620667     0.94500
O535        O  0.71708669  0.07810273  0.11854494    -0.79000
O536        O  0.78414666  0.11105674  0.06979270    -0.72600
Al537      Al  0.76030671  0.03776573  0.12092759     1.90100
O538        O  0.74741034  0.13449019  0.13577305    -0.71600
O539        O  0.85560731  0.12149912  0.10136499    -0.71500
O540        O  0.81812589  0.14579400  0.16711165    -0.77100
O541        O  0.88250244  0.08708964  0.14729299    -0.75300
O542        O  0.80019829  0.07177906  0.13510888    -1.11500
O543        O  0.85610422  0.01281309  0.13109535    -0.70700
C544        C  0.83303318  0.98443847  0.12020363     1.00100
C545        C  0.71543324  0.11498438  0.12862742     0.96400
Al546      Al  0.80108306  0.12364386  0.11975318     1.55600
O547        O  0.74354323  0.02764207  0.17127980    -0.75300
C548        C  0.88629605  0.11075866  0.11992128     1.00600
C549        C  0.77804271  0.07783357  0.05268067     0.95500
O550        O  0.77268192  0.04465569  0.06982866    -0.80600
O551        O  0.77274649  0.04436209  0.92209611    -0.80100
C552        C  0.82280167  0.12901991  0.79311126     0.99300
O553        O  0.81816232  0.14541194  0.82474318    -0.69200
O554        O  0.74744706  0.13410330  0.85599660    -0.72800
Al555      Al  0.80108537  0.12330246  0.87207595     1.49000
C556        C  0.71547179  0.11464498  0.86323133     0.94500
O557        O  0.74356369  0.02732223  0.82068967    -0.79000
O558        O  0.85610793  0.01247088  0.86080692    -0.72600
Al559      Al  0.76033804  0.03743725  0.87099968     1.90100
O560        O  0.80536872  0.01535977  0.79986927    -0.71600
O561        O  0.88253683  0.08669554  0.84464854    -0.71500
O562        O  0.82590983  0.09097929  0.78938194    -0.77100
O563        O  0.85555968  0.12118630  0.89049863    -0.75300
O564        O  0.80023036  0.07142985  0.85677124    -1.11500
O565        O  0.78411919  0.11077847  0.92202021    -0.70700
C566        C  0.77805856  0.07758959  0.93918818     1.00100
C567        C  0.76718089  0.01400096  0.79574073     0.96400
Al568      Al  0.83915505  0.05295737  0.82648593     1.55600
O569        O  0.71711652  0.07778719  0.87338931    -0.75300
C570        C  0.88626837  0.11042597  0.87198764     1.00600
C571        C  0.83304222  0.98411011  0.87170951     0.95500
O572        O  0.79459772  0.98878766  0.87235003    -0.80600
O573        O  0.00524385  0.78020031  0.11946090    -0.80100
C574        C  0.86504712  0.80839214  0.19869890     0.99300
O575        O  0.90308748  0.81142925  0.20242904    -0.69200
O576        O  0.97873695  0.79098623  0.19194457    -0.72800
Al577      Al  0.94109865  0.82475110  0.16534178     1.49000
C578        C  0.98011837  0.75279992  0.19610942     0.94500
O579        O  0.91626480  0.70272390  0.11847756    -0.79000
O580        O  0.88332255  0.76978963  0.06972962    -0.72600
Al581      Al  0.95661076  0.74593034  0.12084268     1.90100
O582        O  0.85990767  0.73308138  0.13572466    -0.71600
O583        O  0.87294391  0.84128567  0.10129762    -0.71500
O584        O  0.84865006  0.80383480  0.16705315    -0.77100
O585        O  0.90734377  0.86816429  0.14724349    -0.75300
O586        O  0.92262681  0.78584403  0.13503602    -1.11500
O587        O  0.98158627  0.84173664  0.13100771    -0.70700
C588        C  0.00993911  0.81865113  0.12009810     1.00100
C589        C  0.87939654  0.70108848  0.12857793     0.96400
Al590      Al  0.87076951  0.78675556  0.11969196     1.55600
O591        O  0.96674794  0.72916312  0.17118698    -0.75300
C592        C  0.88367817  0.87197131  0.11987227     1.00600
C593        C  0.91652757  0.76365797  0.05260750     0.95500
O594        O  0.94970638  0.75829932  0.06974638    -0.80600
O595        O  0.94992065  0.75824029  0.92200705    -0.80100
C596        C  0.86519574  0.80832358  0.79307534     0.99300
O597        O  0.84882866  0.80369427  0.82471542    -0.69200
O598        O  0.86014569  0.73296839  0.85594603    -0.72800
Al599      Al  0.87096915  0.78660588  0.87203036     1.49000
C600        C  0.87959206  0.70097967  0.86316718     0.94500
O601        O  0.96690154  0.72905504  0.82058533    -0.79000
O602        O  0.98179622  0.84161578  0.86069865    -0.72600
Al603      Al  0.95681257  0.74583139  0.87090391     1.90100
O604        O  0.97883368  0.79087208  0.79975945    -0.71600
O605        O  0.90757357  0.86806559  0.84460427    -0.71500
O606        O  0.90322606  0.81143324  0.78932738    -0.77100
O607        O  0.87311211  0.84108408  0.89046405    -0.75300
O608        O  0.92282375  0.78573967  0.85669759    -1.11500
O609        O  0.88351889  0.76962709  0.92196297    -0.70700
C610        C  0.91671176  0.76356492  0.93911549     1.00100
C611        C  0.98020504  0.75267758  0.79563239     0.96400
Al612      Al  0.94127657  0.82466976  0.82640699     1.55600
O613        O  0.91645424  0.70260818  0.87330199    -0.75300
C614        C  0.88387408  0.87179969  0.87196091     1.00600
C615        C  0.01015575  0.81854117  0.87158717     0.95500
O616        O  0.00546549  0.78009054  0.87223886    -0.80600
O617        O  0.21406032  0.99090250  0.11938852    -0.80100
C618        C  0.18593850  0.85069709  0.19864483     0.99300
O619        O  0.18284740  0.88874208  0.20236003    -0.69200
O620        O  0.20325978  0.96440730  0.19187302    -0.72800
Al621      Al  0.16952826  0.92674289  0.16525963     1.49000
C622        C  0.24143649  0.96579845  0.19605744     0.94500
O623        O  0.29156179  0.90194521  0.11843637    -0.79000
O624        O  0.22453167  0.86893808  0.06968443    -0.72600
Al625      Al  0.24834139  0.94227495  0.12078536     1.90100
O626        O  0.26124297  0.84556693  0.13568892    -0.71600
O627        O  0.15306198  0.85853105  0.10123577    -0.71500
O628        O  0.19051237  0.83428478  0.16700653    -0.77100
O629        O  0.12614925  0.89296637  0.14714539    -0.75300
O630        O  0.20844957  0.90827153  0.13497373    -1.11500
O631        O  0.15254101  0.96722285  0.13091273    -0.70700
C632        C  0.17561595  0.99558975  0.12001820     1.00100
C633        C  0.29321870  0.86507500  0.12854335     0.96400
Al634      Al  0.20757483  0.85639607  0.11964422     1.55600
O635        O  0.26508475  0.95243629  0.17114068    -0.75300
C636        C  0.12236857  0.86928240  0.11978063     1.00600
C637        C  0.23063947  0.90214396  0.05255226     0.95500
O638        O  0.23598509  0.93534061  0.06968133    -0.80600
O639        O  0.23598230  0.93548637  0.92195862    -0.80100
C640        C  0.18592452  0.85078214  0.79298334     0.99300
O641        O  0.19056762  0.83439931  0.82461630    -0.69200
O642        O  0.26128208  0.84571732  0.85586887    -0.72800
Al643      Al  0.20764572  0.85652510  0.87194772     1.49000
C644        C  0.29325804  0.86516853  0.86311745     0.94500
O645        O  0.26518867  0.95247056  0.82055773    -0.79000
O646        O  0.15263915  0.96736856  0.86065840    -0.72600
Al647      Al  0.24840272  0.94238638  0.87086593     1.90100
O648        O  0.20338752  0.96443508  0.79972805    -0.71600
O649        O  0.12619616  0.89313624  0.84451672    -0.71500
O650        O  0.18282616  0.88882178  0.78925090    -0.77100
O651        O  0.15316702  0.85864679  0.89036598    -0.75300
O652        O  0.20850638  0.90839311  0.85663853    -1.11500
O653        O  0.22461328  0.86906827  0.92189541    -0.70700
C654        C  0.23066975  0.90226665  0.93905744     1.00100
C655        C  0.24157617  0.96577734  0.79560111     0.96400
Al656      Al  0.16958776  0.92686018  0.82634808     1.55600
O657        O  0.29161778  0.90202851  0.87327524    -0.75300
C658        C  0.12245881  0.86940921  0.87185484     1.00600
C659        C  0.17570567  0.99573250  0.87155826     0.95500
O660        O  0.21415054  0.99104931  0.87220030    -0.80600
O661        O  0.00347884  0.19980948  0.11950806    -0.80100
C662        C  0.14373723  0.17163365  0.19866449     0.99300
O663        O  0.10570309  0.16854416  0.20240384    -0.69200
O664        O  0.03005075  0.18899262  0.19199260    -0.72800
Al665      Al  0.06766116  0.15524311  0.16533722     1.49000
C666        C  0.02863940  0.22717670  0.19616995     0.94500
O667        O  0.09246288  0.27729959  0.11852461    -0.79000
O668        O  0.12539098  0.21024062  0.06972991    -0.72600
Al669      Al  0.05211686  0.23408280  0.12088464     1.90100
O670        O  0.14883680  0.24694097  0.13571638    -0.71600
O671        O  0.13579419  0.13875669  0.10125760    -0.71500
O672        O  0.16011976  0.17619815  0.16701601    -0.77100
O673        O  0.10139000  0.11184254  0.14717896    -0.75300
O674        O  0.08611338  0.19416840  0.13504345    -1.11500
O675        O  0.02713226  0.13827082  0.13102990    -0.70700
C676        C  0.99876875  0.16136026  0.12015381     1.00100
C677        C  0.12934331  0.27893435  0.12859338     0.96400
Al678      Al  0.13796846  0.19327303  0.11967472     1.55600
O679        O  0.04198799  0.25082805  0.17124935    -0.75300
C680        C  0.12503997  0.10805716  0.11979455     1.00600
C681        C  0.09217925  0.21636291  0.05262086     0.95500
O682        O  0.05900703  0.22172972  0.06977255    -0.80600
O683        O  0.05878147  0.22161445  0.92203483    -0.80100
C684        C  0.14342544  0.17147320  0.79305260     0.99300
O685        O  0.15980962  0.17611921  0.82468574    -0.69200
O686        O  0.14852185  0.24687405  0.85592663    -0.72800
Al687      Al  0.13770443  0.19323326  0.87201617     1.49000
C688        C  0.12908044  0.27886320  0.86317148     0.94500
O689        O  0.04177154  0.25081061  0.82064403    -0.79000
O690        O  0.02688545  0.13824700  0.86074200    -0.72600
Al691      Al  0.05187114  0.23402470  0.87094480     1.90100
O692        O  0.02978895  0.18900141  0.79981328    -0.71600
O693        O  0.10108976  0.11178569  0.84457386    -0.71500
O694        O  0.10538835  0.16842423  0.78931669    -0.77100
O695        O  0.13556139  0.13874768  0.89044203    -0.75300
O696        O  0.08584530  0.19411170  0.85671120    -1.11500
O697        O  0.12518376  0.21022825  0.92196249    -0.70700
C698        C  0.09199915  0.21630646  0.93912887     1.00100
C699        C  0.02844365  0.22719770  0.79569412     0.96400
Al700      Al  0.06736736  0.15519048  0.82642069     1.55600
O701        O  0.09223080  0.27723468  0.87333818    -0.75300
C702        C  0.12481111  0.10803952  0.87191380     1.00600
C703        C  0.99853630  0.16132217  0.87165384     0.95500
O704        O  0.00321784  0.19977383  0.87229303    -0.80600
C705        C  0.09223644  0.21716550  0.01266544    -0.11500
C706        C  0.09216352  0.21714550  0.97908172    -0.13100
C707        C  0.14217372  0.06848612  0.87971759    -0.11500
C708        C  0.15795702  0.03507406  0.87957763    -0.13100
C709        C  0.14226805  0.06844794  0.11192713    -0.11500
C710        C  0.15790831  0.03496303  0.11202562    -0.13100
C711        C  0.23146077  0.90205349  0.01259599    -0.11500
C712        C  0.23147226  0.90211476  0.97901207    -0.13100
C713        C  0.08291138  0.85206002  0.87968398    -0.11500
C714        C  0.04950010  0.83628549  0.87957570    -0.13100
C715        C  0.04930239  0.83635724  0.11208220    -0.11500
C716        C  0.08277424  0.85201440  0.11194991    -0.13100
C717        C  0.91655865  0.76277881  0.97906903    -0.11500
C718        C  0.91646347  0.76281609  0.01265295    -0.13100
C719        C  0.86655089  0.91135329  0.87981945    -0.11500
C720        C  0.85078763  0.94477162  0.87971720    -0.13100
C721        C  0.92580698  0.12778791  0.87981255    -0.11500
C722        C  0.95920938  0.14357450  0.87968268    -0.13100
C723        C  0.86640997  0.91158283  0.11206853    -0.11500
C724        C  0.85074919  0.94506183  0.11220620    -0.13100
C725        C  0.95938197  0.14366170  0.11218852    -0.11500
C726        C  0.92590082  0.12801495  0.11208667    -0.13100
C727        C  0.77724645  0.07776840  0.97914178    -0.11500
C728        C  0.77724402  0.07787688  0.01272492    -0.13100
C729        C  0.25653452  0.99719091  0.26131895    -0.11500
C730        C  0.25652034  0.98276604  0.23035140    -0.13100
C731        C  0.18075179  0.15374065  0.26052556    -0.11500
C732        C  0.16818067  0.16631123  0.23124664    -0.13100
C733        C  0.23152150  0.07763448  0.51270104    -0.11500
C734        C  0.23152803  0.07774848  0.47911832    -0.13100
C735        C  0.25673504  0.99693412  0.73033735    -0.11500
C736        C  0.25673306  0.98261794  0.76132251    -0.13100
C737        C  0.18054025  0.15327369  0.73131471    -0.11500
C738        C  0.16788401  0.16598062  0.76051111    -0.13100
C739        C  0.82803374  0.82640246  0.26054301    -0.11500
C740        C  0.84061595  0.81378582  0.23128125    -0.13100
C741        C  0.75208422  0.98290543  0.26145860    -0.11500
C742        C  0.75208862  0.99732991  0.23049389    -0.13100
C743        C  0.77713753  0.90224708  0.51277669    -0.11500
C744        C  0.77716646  0.90220271  0.47919306    -0.13100
C745        C  0.82805377  0.82634069  0.73131585    -0.11500
C746        C  0.84071947  0.81370486  0.76053163    -0.13100
C747        C  0.75200500  0.98277212  0.73049544    -0.11500
C748        C  0.75202773  0.99712138  0.76147140    -0.13100
C749        C  0.01152049  0.73767669  0.26134611    -0.11500
C750        C  0.99708802  0.73769042  0.23038613    -0.13100
C751        C  0.18060119  0.82627103  0.23123796    -0.11500
C752        C  0.16802072  0.81367569  0.26050528    -0.13100
C753        C  0.92584578  0.85206736  0.37977483    -0.11500
C754        C  0.95929609  0.83635358  0.37963901    -0.13100
C755        C  0.14225411  0.91149196  0.37974655    -0.11500
C756        C  0.15793820  0.94496213  0.37962724    -0.13100
C757        C  0.95907677  0.83619787  0.61216423    -0.11500
C758        C  0.92567380  0.85199788  0.61207056    -0.13100
C759        C  0.14216313  0.91119364  0.61194934    -0.11500
C760        C  0.15796855  0.94459517  0.61206771    -0.13100
C761        C  0.09202731  0.76263218  0.51268663    -0.11500
C762        C  0.09211443  0.76269508  0.47910302    -0.13100
C763        C  0.01143755  0.73750765  0.73038701    -0.11500
C764        C  0.99708430  0.73752532  0.76136061    -0.13100
C765        C  0.18050366  0.82631506  0.76043322    -0.11500
C766        C  0.16783814  0.81365155  0.73122466    -0.13100
C767        C  0.84062696  0.16642109  0.26061523    -0.11500
C768        C  0.82803313  0.15384537  0.23134361    -0.13100
C769        C  0.99719777  0.24228206  0.26141292    -0.11500
C770        C  0.01165108  0.24226482  0.23045669    -0.13100
C771        C  0.04940526  0.14369615  0.37970142    -0.11500
C772        C  0.08287333  0.12801769  0.37980692    -0.13100
C773        C  0.85072261  0.03511761  0.37977486    -0.11500
C774        C  0.86640341  0.06858628  0.37989393    -0.13100
C775        C  0.04956395  0.14355331  0.61225820    -0.11500
C776        C  0.08294809  0.12771441  0.61212295    -0.13100
C777        C  0.85073576  0.03512988  0.61228501    -0.11500
C778        C  0.86654172  0.06853496  0.61217203    -0.13100
C779        C  0.91666150  0.21720844  0.51278933    -0.11500
C780        C  0.91659202  0.21724781  0.47920489    -0.13100
C781        C  0.99722194  0.24238416  0.73046395    -0.11500
C782        C  0.01157013  0.24236744  0.76143547    -0.13100
C783        C  0.84084906  0.16615707  0.73135014    -0.11500
C784        C  0.82820139  0.15348122  0.76055846    -0.13100
C785        C  0.33152229  0.13636796  0.63020831    -0.11500
C786        C  0.35762423  0.16256425  0.63021082    -0.13100
C787        C  0.33160915  0.13666157  0.36161519    -0.11500
C788        C  0.35780775  0.16276304  0.36160810    -0.13100
C789        C  0.41662217  0.26267984  0.47912931    -0.11500
C790        C  0.41653203  0.26264591  0.51271338    -0.13100
C791        C  0.17705911  0.63650873  0.63021963    -0.11500
C792        C  0.15084590  0.66259475  0.63021469    -0.13100
C793        C  0.36633892  0.41132180  0.61197195    -0.11500
C794        C  0.35067575  0.44479889  0.61207152    -0.13100
C795        C  0.17714387  0.63654590  0.36161477    -0.11500
C796        C  0.15103764  0.66273921  0.36160745    -0.13100
C797        C  0.35075839  0.44478904  0.37963448    -0.11500
C798        C  0.36656759  0.41138535  0.37976813    -0.13100
C799        C  0.27713623  0.57774827  0.51268873    -0.11500
C800        C  0.27715232  0.57771184  0.47910572    -0.13100
C801        C  0.65097834  0.81718720  0.63023719    -0.11500
C802        C  0.67707597  0.84339031  0.63024822    -0.13100
C803        C  0.45923329  0.64358502  0.61215787    -0.11500
C804        C  0.42577838  0.62788225  0.61203065    -0.13100
C805        C  0.65092157  0.81729583  0.36166112    -0.11500
C806        C  0.67713366  0.84338237  0.36167299    -0.13100
C807        C  0.42573919  0.62789772  0.37973616    -0.11500
C808        C  0.45913913  0.64370342  0.37961934    -0.13100
C809        C  0.59208828  0.71718743  0.51271366    -0.11500
C810        C  0.59202547  0.71723672  0.47912942    -0.13100
C811        C  0.85777495  0.31715338  0.63024644    -0.11500
C812        C  0.83155897  0.34323809  0.63022251    -0.13100
C813        C  0.65789371  0.53494544  0.61225025    -0.11500
C814        C  0.64220685  0.56841491  0.61211667    -0.13100
C815        C  0.58280071  0.35190293  0.61211443    -0.11500
C816        C  0.54933233  0.33622333  0.61222830    -0.13100
C817        C  0.83158591  0.34353736  0.36165852    -0.11500
C818        C  0.85768907  0.31734049  0.36167507    -0.13100
C819        C  0.65795296  0.53526429  0.37973723    -0.11500
C820        C  0.64216542  0.56867570  0.37983510    -0.13100
C821        C  0.58300761  0.35211988  0.37983037    -0.11500
C822        C  0.54961415  0.33630378  0.37971520    -0.13100
C823        C  0.73152425  0.40226870  0.47914996    -0.11500
C824        C  0.73148839  0.40215532  0.51273244    -0.13100
C825        C  0.15096781  0.31708086  0.86161252    -0.11500
C826        C  0.17717005  0.34317014  0.86164822    -0.13100
C827        C  0.25215754  0.48258130  0.76140021    -0.11500
C828        C  0.25213744  0.49699895  0.73043148    -0.13100
C829        C  0.32798209  0.32604825  0.76058528    -0.11500
C830        C  0.34054416  0.31347777  0.73130002    -0.13100
C831        C  0.17726324  0.34339244  0.13025187    -0.11500
C832        C  0.15116902  0.31719204  0.13022045    -0.13100
C833        C  0.27722194  0.40217968  0.01278002    -0.11500
C834        C  0.27722618  0.40206365  0.97919672    -0.13100
C835        C  0.25196801  0.49716731  0.26141715    -0.11500
C836        C  0.25197281  0.48283654  0.23043589    -0.13100
C837        C  0.34092645  0.31385272  0.26056586    -0.11500
C838        C  0.32826184  0.32654293  0.23136895    -0.13100
C839        C  0.67724955  0.13652042  0.86166310    -0.11500
C840        C  0.65114542  0.16271054  0.86168458    -0.13100
C841        C  0.68069777  0.32614118  0.73133354    -0.11500
C842        C  0.66811887  0.31356824  0.76060999    -0.13100
C843        C  0.49711646  0.23763628  0.73050663    -0.11500
C844        C  0.51158044  0.23764519  0.76145891    -0.13100
C845        C  0.45938483  0.33624497  0.87976304    -0.11500
C846        C  0.42590058  0.35188209  0.87987339    -0.13100
C847        C  0.65096856  0.16288773  0.13026920    -0.11500
C848        C  0.67717268  0.13679747  0.13024408    -0.13100
C849        C  0.45920256  0.33642609  0.11226506    -0.11500
C850        C  0.42580534  0.35222614  0.11213192    -0.13100
C851        C  0.59221711  0.26278078  0.97922767    -0.11500
C852        C  0.59212478  0.26281675  0.01281151    -0.13100
C853        C  0.68058535  0.32654815  0.26057162    -0.11500
C854        C  0.66792144  0.31387674  0.23136686    -0.13100
C855        C  0.49725445  0.23756301  0.26146501    -0.11500
C856        C  0.51158982  0.23758591  0.23048801    -0.13100
C857        C  0.83147166  0.63669116  0.86164764    -0.11500
C858        C  0.85769068  0.66276624  0.86161395    -0.13100
C859        C  0.68054062  0.65365701  0.76059138    -0.11500
C860        C  0.66793589  0.66625220  0.73133278    -0.13100
C861        C  0.75656834  0.48271355  0.73050934    -0.11500
C862        C  0.75656985  0.49715409  0.76146971    -0.13100
C863        C  0.65795053  0.44493610  0.87977169    -0.11500
C864        C  0.64229768  0.41145647  0.87988827    -0.13100
C865        C  0.83149495  0.63662294  0.13024979    -0.11500
C866        C  0.85758209  0.66282789  0.13021324    -0.13100
C867        C  0.65789104  0.44490683  0.11228365    -0.11500
C868        C  0.64211841  0.41149062  0.11216881    -0.13100
C869        C  0.73147605  0.57779323  0.01279956    -0.11500
C870        C  0.73146507  0.57785044  0.97921548    -0.13100
C871        C  0.68056894  0.65369140  0.23136086    -0.11500
C872        C  0.66792090  0.66633392  0.26058323    -0.13100
C873        C  0.75666490  0.48295211  0.26148768    -0.11500
C874        C  0.75665212  0.49729785  0.23051201    -0.13100
C875        C  0.35755634  0.81706949  0.86161741    -0.11500
C876        C  0.33147133  0.84327728  0.86157272    -0.13100
C877        C  0.51145373  0.74223699  0.73047013    -0.11500
C878        C  0.49703252  0.74221503  0.76143472    -0.13100
C879        C  0.34056494  0.66609964  0.76059972    -0.11500
C880        C  0.32798615  0.65348682  0.73133693    -0.13100
C881        C  0.54930279  0.64354721  0.87972328    -0.11500
C882        C  0.58277100  0.62787946  0.87985030    -0.13100
C883        C  0.36644253  0.56832180  0.87983751    -0.11500
C884        C  0.35079365  0.53483849  0.87971236    -0.13100
C885        C  0.35770883  0.81721149  0.13023294    -0.11500
C886        C  0.33148618  0.84328124  0.13018857    -0.13100
C887        C  0.54950475  0.64370677  0.11219969    -0.11500
C888        C  0.58292127  0.62794418  0.11208998    -0.13100
C889        C  0.35071541  0.53522535  0.11215718    -0.11500
C890        C  0.36649786  0.56863485  0.11203601    -0.13100
C891        C  0.41653653  0.71718684  0.01277288    -0.11500
C892        C  0.41645489  0.71713365  0.97918977    -0.13100
C893        C  0.49713765  0.74242621  0.23044784    -0.11500
C894        C  0.51150589  0.74244090  0.26141571    -0.13100
C895        C  0.32811573  0.65355396  0.26054138    -0.11500
C896        C  0.34077715  0.66620852  0.23132998    -0.13100
loop_ 
_geom_bond_atom_site_label_1 
_geom_bond_atom_site_label_2 
_geom_bond_distance 
_geom_bond_site_symmetry_2 
_ccdc_geom_bond_type 
O1           C16   1.261       .  A
O1           Al9   1.892       .  S
C2           O12   1.257       .  A
C2            O3   1.265       .  A
C2          C896   1.428       .  S
O3           Al5   1.930       .  S
O4            C6   1.253       .  A
O4           Al5   1.883       .  S
Al5          O13   1.904       .  S
Al5          O15   1.921       .  S
Al5          O14   1.786       .  S
C6           O19   1.262       .  A
C6          C885   1.443       .  S
O7           C17   1.261       .  A
O7           Al9   1.917       .  S
O8           C21   1.260       .  A
O8          Al18   1.893       .  S
Al9          O22   1.949       .  S
Al9          O19   1.939       .  S
Al9          O14   1.791       .  S
O10          C17   1.260       .  A
O10         Al18   1.911       .  S
O11          C20   1.258       .  A
O11         Al18   1.914       .  S
O12         Al18   1.874       .  S
O13          C20   1.256       .  A
O14         Al18   1.781       .  S
O15          C16   1.265       .  A
C16         C891   1.435       .  S
C17         C893   1.437       .  S
C20         C890   1.442       .  S
C21          O22   1.269       .  A
C21         C887   1.442       .  S
O23          C38   1.269       .  A
O23         Al31   1.949       .  S
C24          O34   1.265       .  A
C24          O25   1.257       .  A
C24         C879   1.428       .  S
O25         Al27   1.874       .  S
O26          C28   1.260       .  A
O26         Al27   1.912       .  S
Al27         O35   1.915       .  S
Al27         O37   1.894       .  S
Al27         O36   1.781       .  S
C28          O41   1.261       .  A
C28         C878   1.438       .  S
O29          C39   1.262       .  A
O29         Al31   1.938       .  S
O30          C43   1.265       .  A
O30         Al40   1.922       .  S
Al31         O44   1.892       .  S
Al31         O41   1.918       .  S
Al31         O36   1.791       .  S
O32          C39   1.253       .  A
O32         Al40   1.884       .  S
O33          C42   1.256       .  A
O33         Al40   1.905       .  S
O34         Al40   1.931       .  S
O35          C42   1.258       .  A
O36         Al40   1.786       .  S
O37          C38   1.260       .  A
C38         C881   1.443       .  S
C39         C875   1.444       .  S
C42         C883   1.443       .  S
C43          O44   1.261       .  A
C43         C892   1.435       .  S
O45          C60   1.261       .  A
O45         Al53   1.892       .  S
C46          O56   1.257       .  A
C46          O47   1.265       .  A
C46         C871   1.428       .  S
O47         Al49   1.930       .  S
O48          C50   1.253       .  A
O48         Al49   1.883       .  S
Al49         O57   1.904       .  S
Al49         O59   1.922       .  S
Al49         O58   1.786       .  S
C50          O63   1.262       .  A
C50         C865   1.443       .  S
O51          C61   1.261       .  A
O51         Al53   1.917       .  S
O52          C65   1.260       .  A
O52         Al62   1.893       .  S
Al53         O66   1.949       .  S
Al53         O63   1.938       .  S
Al53         O58   1.791       .  S
O54          C61   1.260       .  A
O54         Al62   1.911       .  S
O55          C64   1.258       .  A
O55         Al62   1.914       .  S
O56         Al62   1.874       .  S
O57          C64   1.256       .  A
O58         Al62   1.781       .  S
O59          C60   1.265       .  A
C60         C869   1.435       .  S
C61         C874   1.437       .  S
C64         C888   1.442       .  S
C65          O66   1.269       .  A
C65         C867   1.442       .  S
O67          C82   1.269       .  A
O67         Al75   1.949       .  S
C68          O78   1.265       .  A
C68          O69   1.257       .  A
C68         C859   1.428       .  S
O69         Al71   1.874       .  S
O70          C72   1.260       .  A
O70         Al71   1.912       .  S
Al71         O79   1.915       .  S
Al71         O81   1.894       .  S
Al71         O80   1.781       .  S
C72          O85   1.262       .  A
C72         C862   1.438       .  S
O73          C83   1.262       .  A
O73         Al75   1.938       .  S
O74          C87   1.265       .  A
O74         Al84   1.922       .  S
Al75         O88   1.892       .  S
Al75         O85   1.918       .  S
Al75         O80   1.791       .  S
O76          C83   1.253       .  A
O76         Al84   1.884       .  S
O77          C86   1.256       .  A
O77         Al84   1.905       .  S
O78         Al84   1.931       .  S
O79          C86   1.258       .  A
O80         Al84   1.786       .  S
O81          C82   1.260       .  A
C82         C863   1.443       .  S
C83         C857   1.444       .  S
C86         C882   1.442       .  S
C87          O88   1.261       .  A
C87         C870   1.435       .  S
O89         C104   1.261       .  A
O89         Al97   1.892       .  S
C90         O100   1.257       .  A
C90          O91   1.265       .  A
C90         C854   1.428       .  S
O91         Al93   1.930       .  S
O92          C94   1.253       .  A
O92         Al93   1.883       .  S
Al93        O101   1.904       .  S
Al93        O103   1.921       .  S
Al93        O102   1.786       .  S
C94         O107   1.262       .  A
C94         C847   1.444       .  S
O95         C105   1.261       .  A
O95         Al97   1.916       .  S
O96         C109   1.260       .  A
O96        Al106   1.893       .  S
Al97        O110   1.950       .  S
Al97        O107   1.939       .  S
Al97        O102   1.791       .  S
O98         C105   1.260       .  A
O98        Al106   1.911       .  S
O99         C108   1.258       .  A
O99        Al106   1.915       .  S
O100       Al106   1.874       .  S
O101        C108   1.256       .  A
O102       Al106   1.781       .  S
O103        C104   1.265       .  A
C104        C852   1.435       .  S
C105        C856   1.437       .  S
C108        C868   1.442       .  S
C109        O110   1.269       .  A
C109        C849   1.442       .  S
O111        C126   1.269       .  A
O111       Al119   1.949       .  S
C112        O122   1.265       .  A
C112        O113   1.257       .  A
C112        C842   1.428       .  S
O113       Al115   1.874       .  S
O114        C116   1.260       .  A
O114       Al115   1.912       .  S
Al115       O123   1.915       .  S
Al115       O125   1.894       .  S
Al115       O124   1.781       .  S
C116        O129   1.262       .  A
C116        C844   1.438       .  S
O117        C127   1.262       .  A
O117       Al119   1.938       .  S
O118        C131   1.265       .  A
O118       Al128   1.922       .  S
Al119       O132   1.892       .  S
Al119       O129   1.918       .  S
Al119       O124   1.791       .  S
O120        C127   1.253       .  A
O120       Al128   1.883       .  S
O121        C130   1.256       .  A
O121       Al128   1.905       .  S
O122       Al128   1.931       .  S
O123        C130   1.258       .  A
O124       Al128   1.786       .  S
O125        C126   1.260       .  A
C126        C845   1.443       .  S
C127        C840   1.444       .  S
C130        C864   1.443       .  S
C131        O132   1.261       .  A
C131        C851   1.435       .  S
O133        C148   1.261       .  A
O133       Al141   1.892       .  S
C134        O144   1.257       .  A
C134        O135   1.265       .  A
C134        C838   1.428       .  S
O135       Al137   1.930       .  S
O136        C138   1.253       .  A
O136       Al137   1.883       .  S
Al137       O145   1.904       .  S
Al137       O147   1.921       .  S
Al137       O146   1.785       .  S
C138        O151   1.262       .  A
C138        C831   1.444       .  S
O139        C149   1.261       .  A
O139       Al141   1.917       .  S
O140        C153   1.260       .  A
O140       Al150   1.893       .  S
Al141       O154   1.949       .  S
Al141       O151   1.939       .  S
Al141       O146   1.791       .  S
O142        C149   1.260       .  A
O142       Al150   1.911       .  S
O143        C152   1.258       .  A
O143       Al150   1.914       .  S
O144       Al150   1.874       .  S
O145        C152   1.256       .  A
O146       Al150   1.781       .  S
O147        C148   1.265       .  A
C148        C833   1.435       .  S
C149        C836   1.437       .  S
C152        C850   1.442       .  S
C153        O154   1.269       .  A
C153        C889   1.442       .  S
O155        C170   1.269       .  A
O155       Al163   1.949       .  S
C156        O166   1.265       .  A
C156        O157   1.257       .  A
C156        C829   1.428       .  S
O157       Al159   1.874       .  S
O158        C160   1.260       .  A
O158       Al159   1.912       .  S
Al159       O167   1.914       .  S
Al159       O169   1.894       .  S
Al159       O168   1.781       .  S
C160        O173   1.262       .  A
C160        C827   1.438       .  S
O161        C171   1.262       .  A
O161       Al163   1.938       .  S
O162        C175   1.265       .  A
O162       Al172   1.922       .  S
Al163       O176   1.892       .  S
Al163       O173   1.918       .  S
Al163       O168   1.791       .  S
O164        C171   1.253       .  A
O164       Al172   1.883       .  S
O165        C174   1.256       .  A
O165       Al172   1.905       .  S
O166       Al172   1.931       .  S
O167        C174   1.258       .  A
O168       Al172   1.786       .  S
O169        C170   1.260       .  A
C170        C884   1.443       .  S
C171        C826   1.444       .  S
C174        C846   1.443       .  S
C175        O176   1.261       .  A
C175        C834   1.435       .  S
O177        C192   1.261       .  A
O177       Al185   1.892       .  S
C178        O188   1.257       .  A
C178        O179   1.265       .  A
C178        C853   1.428       .  S
O179       Al181   1.930       .  S
O180        C182   1.253       .  A
O180       Al181   1.883       .  S
Al181       O189   1.904       .  S
Al181       O191   1.921       .  S
Al181       O190   1.786       .  S
C182        O195   1.262       .  A
C182        C817   1.444       .  S
O183        C193   1.261       .  A
O183       Al185   1.917       .  S
O184        C197   1.260       .  A
O184       Al194   1.893       .  S
Al185       O198   1.950       .  S
Al185       O195   1.939       .  S
Al185       O190   1.791       .  S
O186        C193   1.260       .  A
O186       Al194   1.911       .  S
O187        C196   1.258       .  A
O187       Al194   1.915       .  S
O188       Al194   1.874       .  S
O189        C196   1.256       .  A
O190       Al194   1.781       .  S
O191        C192   1.265       .  A
C192        C823   1.435       .  S
C193        C873   1.437       .  S
C196        C821   1.442       .  S
C197        O198   1.269       .  A
C197        C819   1.442       .  S
O199        C214   1.269       .  A
O199       Al207   1.950       .  S
C200        O210   1.265       .  A
C200        O201   1.257       .  A
C200        C841   1.428       .  S
O201       Al203   1.874       .  S
O202        C204   1.260       .  A
O202       Al203   1.912       .  S
Al203       O211   1.915       .  S
Al203       O213   1.894       .  S
Al203       O212   1.781       .  S
C204        O217   1.262       .  A
C204        C861   1.438       .  S
O205        C215   1.262       .  A
O205       Al207   1.938       .  S
O206        C219   1.265       .  A
O206       Al216   1.922       .  S
Al207       O220   1.892       .  S
Al207       O217   1.918       .  S
Al207       O212   1.791       .  S
O208        C215   1.253       .  A
O208       Al216   1.884       .  S
O209        C218   1.256       .  A
O209       Al216   1.905       .  S
O210       Al216   1.931       .  S
O211        C218   1.258       .  A
O212       Al216   1.786       .  S
O213        C214   1.260       .  A
C214        C813   1.443       .  S
C215        C812   1.444       .  S
C218        C815   1.443       .  S
C219        O220   1.261       .  A
C219        C824   1.435       .  S
O221        C236   1.261       .  A
O221       Al229   1.892       .  S
C222        O232   1.257       .  A
C222        O223   1.265       .  A
C222        C872   1.428       .  S
O223       Al225   1.930       .  S
O224        C226   1.253       .  A
O224       Al225   1.883       .  S
Al225       O233   1.904       .  S
Al225       O235   1.921       .  S
Al225       O234   1.786       .  S
C226        O239   1.262       .  A
C226        C805   1.444       .  S
O227        C237   1.261       .  A
O227       Al229   1.917       .  S
O228        C241   1.260       .  A
O228       Al238   1.893       .  S
Al229       O242   1.950       .  S
Al229       O239   1.939       .  S
Al229       O234   1.791       .  S
O230        C237   1.260       .  A
O230       Al238   1.911       .  S
O231        C240   1.258       .  A
O231       Al238   1.915       .  S
O232       Al238   1.874       .  S
O233        C240   1.256       .  A
O234       Al238   1.781       .  S
O235        C236   1.265       .  A
C236        C810   1.435       .  S
C237        C894   1.437       .  S
C240        C820   1.442       .  S
C241        O242   1.269       .  A
C241        C808   1.443       .  S
O243        C258   1.269       .  A
O243       Al251   1.950       .  S
C244        O254   1.265       .  A
C244        O245   1.257       .  A
C244        C860   1.428       .  S
O245       Al247   1.874       .  S
O246        C248   1.260       .  A
O246       Al247   1.912       .  S
Al247       O255   1.915       .  S
Al247       O257   1.894       .  S
Al247       O256   1.781       .  S
C248        O261   1.262       .  A
C248        C877   1.438       .  S
O249        C259   1.262       .  A
O249       Al251   1.938       .  S
O250        C263   1.265       .  A
O250       Al260   1.922       .  S
Al251       O264   1.892       .  S
Al251       O261   1.918       .  S
Al251       O256   1.791       .  S
O252        C259   1.253       .  A
O252       Al260   1.884       .  S
O253        C262   1.256       .  A
O253       Al260   1.905       .  S
O254       Al260   1.931       .  S
O255        C262   1.258       .  A
O256       Al260   1.786       .  S
O257        C258   1.260       .  A
C258        C803   1.443       .  S
C259        C801   1.444       .  S
C262        C814   1.443       .  S
C263        O264   1.261       .  A
C263        C809   1.435       .  S
O265        C280   1.261       .  A
O265       Al273   1.892       .  S
C266        O276   1.257       .  A
C266        O267   1.265       .  A
C266        C895   1.428       .  S
O267       Al269   1.930       .  S
O268        C270   1.253       .  A
O268       Al269   1.883       .  S
Al269       O277   1.904       .  S
Al269       O279   1.922       .  S
Al269       O278   1.786       .  S
C270        O283   1.262       .  A
C270        C795   1.444       .  S
O271        C281   1.261       .  A
O271       Al273   1.916       .  S
O272        C285   1.260       .  A
O272       Al282   1.893       .  S
Al273       O286   1.950       .  S
Al273       O283   1.939       .  S
Al273       O278   1.791       .  S
O274        C281   1.260       .  A
O274       Al282   1.911       .  S
O275        C284   1.258       .  A
O275       Al282   1.915       .  S
O276       Al282   1.874       .  S
O277        C284   1.256       .  A
O278       Al282   1.781       .  S
O279        C280   1.265       .  A
C280        C800   1.435       .  S
C281        C835   1.437       .  S
C284        C807   1.442       .  S
C285        O286   1.269       .  A
C285        C797   1.443       .  S
O287        C302   1.269       .  A
O287       Al295   1.949       .  S
C288        O298   1.265       .  A
C288        O289   1.257       .  A
C288        C880   1.428       .  S
O289       Al291   1.874       .  S
O290        C292   1.260       .  A
O290       Al291   1.912       .  S
Al291       O299   1.915       .  S
Al291       O301   1.894       .  S
Al291       O300   1.781       .  S
C292        O305   1.262       .  A
C292        C828   1.438       .  S
O293        C303   1.262       .  A
O293       Al295   1.938       .  S
O294        C307   1.265       .  A
O294       Al304   1.922       .  S
Al295       O308   1.892       .  S
Al295       O305   1.918       .  S
Al295       O300   1.791       .  S
O296        C303   1.253       .  A
O296       Al304   1.884       .  S
O297        C306   1.256       .  A
O297       Al304   1.905       .  S
O298       Al304   1.931       .  S
O299        C306   1.258       .  A
O300       Al304   1.786       .  S
O301        C302   1.260       .  A
C302        C794   1.443       .  S
C303        C791   1.444       .  S
C306        C804   1.443       .  S
C307        O308   1.261       .  A
C307        C799   1.435       .  S
O309        C324   1.261       .  A
O309       Al317   1.892       .  S
C310        O320   1.257       .  A
C310        O311   1.265       .  A
C310        C837   1.428       .  S
O311       Al313   1.930       .  S
O312        C314   1.253       .  A
O312       Al313   1.883       .  S
Al313       O321   1.904       .  S
Al313       O323   1.922       .  S
Al313       O322   1.786       .  S
C314        O327   1.262       .  A
C314        C788   1.444       .  S
O315        C325   1.261       .  A
O315       Al317   1.917       .  S
O316        C329   1.260       .  A
O316       Al326   1.893       .  S
Al317       O330   1.950       .  S
Al317       O327   1.939       .  S
Al317       O322   1.791       .  S
O318        C325   1.260       .  A
O318       Al326   1.911       .  S
O319        C328   1.258       .  A
O319       Al326   1.915       .  S
O320       Al326   1.874       .  S
O321        C328   1.256       .  A
O322       Al326   1.781       .  S
O323        C324   1.265       .  A
C324        C789   1.435       .  S
C325        C855   1.437       .  S
C328        C798   1.442       .  S
C329        O330   1.269       .  A
C329        C822   1.443       .  S
O331        C346   1.269       .  A
O331       Al339   1.950       .  S
C332        O342   1.265       .  A
C332        O333   1.257       .  A
C332        C830   1.428       .  S
O333       Al335   1.874       .  S
O334        C336   1.260       .  A
O334       Al335   1.912       .  S
Al335       O343   1.915       .  S
Al335       O345   1.894       .  S
Al335       O344   1.781       .  S
C336        O349   1.262       .  A
C336        C843   1.438       .  S
O337        C347   1.262       .  A
O337       Al339   1.938       .  S
O338        C351   1.265       .  A
O338       Al348   1.922       .  S
Al339       O352   1.892       .  S
Al339       O349   1.918       .  S
Al339       O344   1.791       .  S
O340        C347   1.253       .  A
O340       Al348   1.883       .  S
O341        C350   1.256       .  A
O341       Al348   1.905       .  S
O342       Al348   1.931       .  S
O343        C350   1.258       .  A
O344       Al348   1.786       .  S
O345        C346   1.260       .  A
C346        C816   1.443       .  S
C347        C786   1.444       .  S
C350        C793   1.443       .  S
C351        O352   1.261       .  A
C351        C790   1.435       .  S
O353        C368   1.261       .  A
O353       Al361   1.892       .  S
C354        O364   1.257       .  A
C354        O355   1.265       .  A
C354        C783   1.428       .  S
O355       Al357   1.930       .  S
O356        C358   1.253       .  A
O356       Al357   1.883       .  S
Al357       O365   1.904       .  S
Al357       O367   1.922       .  S
Al357       O366   1.786       .  S
C358        O371   1.262       .  A
C358        C811   1.444       .  S
O359        C369   1.261       .  A
O359       Al361   1.917       .  S
O360        C373   1.260   1_655  A
O360       Al370   1.893       .  S
Al361       O374   1.950   1_655  S
Al361       O371   1.939       .  S
Al361       O366   1.791       .  S
O362        C369   1.260       .  A
O362       Al370   1.911       .  S
O363        C372   1.258       .  A
O363       Al370   1.915       .  S
O364       Al370   1.874       .  S
O365        C372   1.256       .  A
O366       Al370   1.781       .  S
O367        C368   1.265       .  A
C368        C779   1.435       .  S
C369        C781   1.437       .  S
C372        C778   1.442       .  S
C373        O374   1.269       .  A
C373        C775   1.443       .  S
O375        C390   1.269       .  A
O375       Al383   1.950   1_455  S
C376        O386   1.265       .  A
C376        O377   1.257       .  A
C376        C767   1.428       .  S
O377       Al379   1.874       .  S
O378        C380   1.260       .  A
O378       Al379   1.912       .  S
Al379       O387   1.915       .  S
Al379       O389   1.894       .  S
Al379       O388   1.781       .  S
C380        O393   1.262       .  A
C380        C769   1.438       .  S
O381        C391   1.262       .  A
O381       Al383   1.938       .  S
O382        C395   1.265       .  A
O382       Al392   1.922       .  S
Al383       O396   1.892       .  S
Al383       O393   1.918       .  S
Al383       O388   1.791       .  S
O384        C391   1.253       .  A
O384       Al392   1.883       .  S
O385        C394   1.256       .  A
O385       Al392   1.905       .  S
O386       Al392   1.931       .  S
O387        C394   1.258       .  A
O388       Al392   1.786       .  S
O389        C390   1.260   1_655  A
C390        C771   1.443       .  S
C391        C818   1.444       .  S
C394        C774   1.443       .  S
C395        O396   1.261       .  A
C395        C780   1.435       .  S
O397        C412   1.261       .  A
O397       Al405   1.892       .  S
C398        O408   1.257       .  A
C398        O399   1.265       .  A
C398        C766   1.428       .  S
O399       Al401   1.930       .  S
O400        C402   1.253       .  A
O400       Al401   1.883       .  S
Al401       O409   1.904       .  S
Al401       O411   1.921       .  S
Al401       O410   1.786       .  S
C402        O415   1.262       .  A
C402        C792   1.444       .  S
O403        C413   1.261       .  A
O403       Al405   1.917       .  S
O404        C417   1.260   1_455  A
O404       Al414   1.893       .  S
Al405       O418   1.950       .  S
Al405       O415   1.939       .  S
Al405       O410   1.791       .  S
O406        C413   1.260       .  A
O406       Al414   1.911       .  S
O407        C416   1.258       .  A
O407       Al414   1.914       .  S
O408       Al414   1.874       .  S
O409        C416   1.256       .  A
O410       Al414   1.781       .  S
O411        C412   1.265       .  A
C412        C761   1.435       .  S
C413        C763   1.437       .  S
C416        C759   1.442       .  S
C417        O418   1.269   1_655  A
C417        C757   1.443       .  S
O419        C434   1.269   1_455  A
O419       Al427   1.950       .  S
C420        O430   1.265       .  A
C420        O421   1.257       .  A
C420        C752   1.428       .  S
O421       Al423   1.874       .  S
O422        C424   1.260       .  A
O422       Al423   1.912       .  S
Al423       O431   1.915       .  S
Al423       O433   1.894       .  S
Al423       O432   1.781       .  S
C424        O437   1.262       .  A
C424        C749   1.438       .  S
O425        C435   1.262       .  A
O425       Al427   1.938       .  S
O426        C439   1.265       .  A
O426       Al436   1.922       .  S
Al427       O440   1.892       .  S
Al427       O437   1.918       .  S
Al427       O432   1.791       .  S
O428        C435   1.253       .  A
O428       Al436   1.884       .  S
O429        C438   1.256       .  A
O429       Al436   1.905       .  S
O430       Al436   1.931       .  S
O431        C438   1.258       .  A
O432       Al436   1.786       .  S
O433        C434   1.260   1_455  A
C434        C754   1.443       .  S
C435        C796   1.444       .  S
C438        C755   1.443       .  S
C439        O440   1.261       .  A
C439        C762   1.435       .  S
O441        C456   1.261       .  A
O441       Al449   1.892       .  S
C442        O452   1.257       .  A
C442        O443   1.265       .  A
C442        C745   1.428       .  S
O443       Al445   1.930       .  S
O444        C446   1.253       .  A
O444       Al445   1.883       .  S
Al445       O453   1.904       .  S
Al445       O455   1.921       .  S
Al445       O454   1.786       .  S
C446        O459   1.262       .  A
C446        C802   1.444       .  S
O447        C457   1.261       .  A
O447       Al449   1.917       .  S
O448        C461   1.260       .  A
O448       Al458   1.893       .  S
Al449       O462   1.950       .  S
Al449       O459   1.939       .  S
Al449       O454   1.791       .  S
O450        C457   1.260       .  A
O450       Al458   1.911       .  S
O451        C460   1.258       .  A
O451       Al458   1.915       .  S
O452       Al458   1.874       .  S
O453        C460   1.256       .  A
O454       Al458   1.781       .  S
O455        C456   1.265       .  A
C456        C743   1.435       .  S
C457        C747   1.437       .  S
C460        C758   1.442       .  S
C461        O462   1.269       .  A
C461        C777   1.443   1_565  S
O463        C478   1.269       .  A
O463       Al471   1.949       .  S
C464        O474   1.265       .  A
C464        O465   1.257       .  A
C464        C739   1.428       .  S
O465       Al467   1.874       .  S
O466        C468   1.260       .  A
O466       Al467   1.912       .  S
Al467       O475   1.915       .  S
Al467       O477   1.894       .  S
Al467       O476   1.781       .  S
C468        O481   1.262       .  A
C468        C741   1.438       .  S
O469        C479   1.262       .  A
O469       Al471   1.938       .  S
O470        C483   1.265       .  A
O470       Al480   1.922       .  S
Al471       O484   1.892       .  S
Al471       O481   1.918       .  S
Al471       O476   1.791       .  S
O472        C479   1.253       .  A
O472       Al480   1.884       .  S
O473        C482   1.256       .  A
O473       Al480   1.905       .  S
O474       Al480   1.931       .  S
O475        C482   1.258       .  A
O476       Al480   1.786       .  S
O477        C478   1.260       .  A
C478        C773   1.443   1_565  S
C479        C806   1.444       .  S
C482        C753   1.443       .  S
C483        O484   1.261       .  A
C483        C744   1.435       .  S
O485        C500   1.261       .  A
O485       Al493   1.892       .  S
C486        O496   1.257       .  A
C486        O487   1.265       .  A
C486        C737   1.428       .  S
O487       Al489   1.930       .  S
O488        C490   1.253       .  A
O488       Al489   1.883       .  S
Al489       O497   1.904       .  S
Al489       O499   1.921       .  S
Al489       O498   1.786       .  S
C490        O503   1.262       .  A
C490        C785   1.444       .  S
O491        C501   1.261       .  A
O491       Al493   1.917       .  S
O492        C505   1.260   1_545  A
O492       Al502   1.893       .  S
Al493       O506   1.950   1_545  S
Al493       O503   1.939       .  S
Al493       O498   1.791       .  S
O494        C501   1.260       .  A
O494       Al502   1.911       .  S
O495        C504   1.258       .  A
O495       Al502   1.915       .  S
O496       Al502   1.874       .  S
O497        C504   1.256       .  A
O498       Al502   1.781       .  S
O499        C500   1.265       .  A
C500        C733   1.435       .  S
C501        C735   1.437   1_545  S
C504        C776   1.442       .  S
C505        O506   1.269       .  A
C505        C760   1.442       .  S
O507        C522   1.269       .  A
O507       Al515   1.950   1_565  S
C508        O518   1.265       .  A
C508        O509   1.257       .  A
C508        C731   1.428       .  S
O509       Al511   1.874       .  S
O510        C512   1.260       .  A
O510       Al511   1.912       .  S
Al511       O519   1.915       .  S
Al511       O521   1.894       .  S
Al511       O520   1.781       .  S
C512        O525   1.262       .  A
C512        C729   1.438   1_545  S
O513        C523   1.262       .  A
O513       Al515   1.938       .  S
O514        C527   1.265       .  A
O514       Al524   1.922       .  S
Al515       O528   1.892       .  S
Al515       O525   1.918       .  S
Al515       O520   1.791       .  S
O516        C523   1.253       .  A
O516       Al524   1.883       .  S
O517        C526   1.256       .  A
O517       Al524   1.905       .  S
O518       Al524   1.931       .  S
O519        C526   1.258       .  A
O520       Al524   1.786       .  S
O521        C522   1.260   1_545  A
C522        C756   1.443       .  S
C523        C787   1.444       .  S
C526        C772   1.443       .  S
C527        O528   1.261       .  A
C527        C734   1.435       .  S
O529        C544   1.269       .  A
O529       Al537   1.949   1_565  S
C530        O540   1.265       .  A
C530        O531   1.257       .  A
C530        C768   1.428       .  S
O531       Al533   1.874       .  S
O532        C534   1.260       .  A
O532       Al533   1.912       .  S
Al533       O541   1.915       .  S
Al533       O543   1.894       .  S
Al533       O542   1.781       .  S
C534        O547   1.262       .  A
C534        C742   1.438   1_545  S
O535        C545   1.262       .  A
O535       Al537   1.938       .  S
O536        C549   1.265       .  A
O536       Al546   1.922       .  S
Al537       O550   1.892       .  S
Al537       O547   1.918       .  S
Al537       O542   1.791       .  S
O538        C545   1.253       .  A
O538       Al546   1.883       .  S
O539        C548   1.256       .  A
O539       Al546   1.905       .  S
O540       Al546   1.931       .  S
O541        C548   1.258       .  A
O542       Al546   1.786       .  S
O543        C544   1.260   1_545  A
C544        C724   1.443       .  S
C545        C848   1.444       .  S
C548        C726   1.443       .  S
C549        O550   1.261       .  A
C549        C728   1.435       .  S
O551        C566   1.261       .  A
O551       Al559   1.892       .  S
C552        O562   1.257       .  A
C552        O553   1.265       .  A
C552        C784   1.428       .  S
O553       Al555   1.930       .  S
O554        C556   1.253       .  A
O554       Al555   1.883       .  S
Al555       O563   1.904       .  S
Al555       O565   1.921       .  S
Al555       O564   1.786       .  S
C556        O569   1.262       .  A
C556        C839   1.443       .  S
O557        C567   1.261       .  A
O557       Al559   1.917       .  S
O558        C571   1.260   1_545  A
O558       Al568   1.893       .  S
Al559       O572   1.949   1_545  S
Al559       O569   1.938       .  S
Al559       O564   1.791       .  S
O560        C567   1.260       .  A
O560       Al568   1.911       .  S
O561        C570   1.258       .  A
O561       Al568   1.914       .  S
O562       Al568   1.874       .  S
O563        C570   1.256       .  A
O564       Al568   1.781       .  S
O565        C566   1.265       .  A
C566        C727   1.435       .  S
C567        C748   1.437   1_545  S
C570        C721   1.442       .  S
C571        O572   1.269       .  A
C571        C720   1.442       .  S
O573        C588   1.269       .  A
O573       Al581   1.949   1_455  S
C574        O584   1.265       .  A
C574        O575   1.257       .  A
C574        C740   1.428       .  S
O575       Al577   1.874       .  S
O576        C578   1.260       .  A
O576       Al577   1.912       .  S
Al577       O585   1.915       .  S
Al577       O587   1.894       .  S
Al577       O586   1.781       .  S
C578        O591   1.261       .  A
C578        C750   1.438       .  S
O579        C589   1.262       .  A
O579       Al581   1.938       .  S
O580        C593   1.265       .  A
O580       Al590   1.922       .  S
Al581       O594   1.892       .  S
Al581       O591   1.918       .  S
Al581       O586   1.791       .  S
O582        C589   1.253       .  A
O582       Al590   1.884       .  S
O583        C592   1.256       .  A
O583       Al590   1.905       .  S
O584       Al590   1.931       .  S
O585        C592   1.258       .  A
O586       Al590   1.786       .  S
O587        C588   1.260   1_655  A
C588        C715   1.443       .  S
C589        C866   1.444       .  S
C592        C723   1.443       .  S
C593        O594   1.261       .  A
C593        C718   1.435       .  S
O595        C610   1.261       .  A
O595       Al603   1.893       .  S
C596        O606   1.257       .  A
C596        O597   1.265       .  A
C596        C746   1.428       .  S
O597       Al599   1.930       .  S
O598        C600   1.253       .  A
O598       Al599   1.883       .  S
Al599       O607   1.904       .  S
Al599       O609   1.921       .  S
Al599       O608   1.786       .  S
C600        O613   1.262       .  A
C600        C858   1.444       .  S
O601        C611   1.261       .  A
O601       Al603   1.917       .  S
O602        C615   1.260   1_655  A
O602       Al612   1.893       .  S
Al603       O616   1.949   1_655  S
Al603       O613   1.939       .  S
Al603       O608   1.791       .  S
O604        C611   1.260       .  A
O604       Al612   1.911       .  S
O605        C614   1.258       .  A
O605       Al612   1.914       .  S
O606       Al612   1.874       .  S
O607        C614   1.256       .  A
O608       Al612   1.781       .  S
O609        C610   1.265       .  A
C610        C717   1.435       .  S
C611        C764   1.437       .  S
C614        C719   1.442       .  S
C615        O616   1.269       .  A
C615        C714   1.442       .  S
O617        C632   1.269       .  A
O617       Al625   1.949       .  S
C618        O628   1.265       .  A
C618        O619   1.257       .  A
C618        C751   1.428       .  S
O619       Al621   1.874       .  S
O620        C622   1.260       .  A
O620       Al621   1.912       .  S
Al621       O629   1.914       .  S
Al621       O631   1.894       .  S
Al621       O630   1.781       .  S
C622        O635   1.262       .  A
C622        C730   1.438       .  S
O623        C633   1.262       .  A
O623       Al625   1.938       .  S
O624        C637   1.265       .  A
O624       Al634   1.922       .  S
Al625       O638   1.892       .  S
Al625       O635   1.918       .  S
Al625       O630   1.791       .  S
O626        C633   1.253       .  A
O626       Al634   1.884       .  S
O627        C636   1.256       .  A
O627       Al634   1.905       .  S
O628       Al634   1.931       .  S
O629        C636   1.258       .  A
O630       Al634   1.786       .  S
O631        C632   1.260       .  A
C632        C710   1.443   1_565  S
C633        C886   1.444       .  S
C636        C716   1.442       .  S
C637        O638   1.261       .  A
C637        C711   1.435       .  S
O639        C654   1.261       .  A
O639       Al647   1.892       .  S
C640        O650   1.257       .  A
C640        O641   1.265       .  A
C640        C765   1.428       .  S
O641       Al643   1.930       .  S
O642        C644   1.253       .  A
O642       Al643   1.883       .  S
Al643       O651   1.904       .  S
Al643       O653   1.922       .  S
Al643       O652   1.786       .  S
C644        O657   1.262       .  A
C644        C876   1.443       .  S
O645        C655   1.261       .  A
O645       Al647   1.917       .  S
O646        C659   1.260       .  A
O646       Al656   1.893       .  S
Al647       O660   1.949       .  S
Al647       O657   1.938       .  S
Al647       O652   1.791       .  S
O648        C655   1.260       .  A
O648       Al656   1.911       .  S
O649        C658   1.258       .  A
O649       Al656   1.914       .  S
O650       Al656   1.874       .  S
O651        C658   1.256       .  A
O652       Al656   1.781       .  S
O653        C654   1.265       .  A
C654        C712   1.435       .  S
C655        C736   1.437       .  S
C658        C713   1.442       .  S
C659        O660   1.269       .  A
C659        C708   1.442   1_565  S
O661        C676   1.269   1_455  A
O661       Al669   1.949       .  S
C662        O672   1.265       .  A
C662        O663   1.257       .  A
C662        C732   1.428       .  S
O663       Al665   1.874       .  S
O664        C666   1.260       .  A
O664       Al665   1.912       .  S
Al665       O673   1.914       .  S
Al665       O675   1.894       .  S
Al665       O674   1.781       .  S
C666        O679   1.262       .  A
C666        C770   1.438       .  S
O667        C677   1.262       .  A
O667       Al669   1.938       .  S
O668        C681   1.265       .  A
O668       Al678   1.922       .  S
Al669       O682   1.892       .  S
Al669       O679   1.918       .  S
Al669       O674   1.791       .  S
O670        C677   1.253       .  A
O670       Al678   1.883       .  S
O671        C680   1.256       .  A
O671       Al678   1.905       .  S
O672       Al678   1.931       .  S
O673        C680   1.258       .  A
O674       Al678   1.786       .  S
O675        C676   1.260   1_455  A
C676        C725   1.443       .  S
C677        C832   1.444       .  S
C680        C709   1.442       .  S
C681        O682   1.261       .  A
C681        C705   1.435       .  S
O683        C698   1.261       .  A
O683       Al691   1.892       .  S
C684        O694   1.257       .  A
C684        O685   1.265       .  A
C684        C738   1.428       .  S
O685       Al687   1.930       .  S
O686        C688   1.253       .  A
O686       Al687   1.883       .  S
Al687       O695   1.904       .  S
Al687       O697   1.922       .  S
Al687       O696   1.785       .  S
C688        O701   1.262       .  A
C688        C825   1.443       .  S
O689        C699   1.261       .  A
O689       Al691   1.916       .  S
O690        C703   1.260   1_455  A
O690       Al700   1.893       .  S
Al691       O704   1.949       .  S
Al691       O701   1.938       .  S
Al691       O696   1.791       .  S
O692        C699   1.260       .  A
O692       Al700   1.911       .  S
O693        C702   1.258       .  A
O693       Al700   1.914       .  S
O694       Al700   1.874       .  S
O695        C702   1.256       .  A
O696       Al700   1.781       .  S
O697        C698   1.265       .  A
C698        C706   1.435       .  S
C699        C782   1.437       .  S
C702        C707   1.442       .  S
C703        O704   1.269   1_655  A
C703        C722   1.442       .  S
C705        C706   1.206   1_554  T
C707        C708   1.210       .  T
C709        C710   1.210       .  T
C711        C712   1.206   1_554  T
C713        C714   1.210       .  T
C715        C716   1.210       .  T
C717        C718   1.206   1_556  T
C719        C720   1.210       .  T
C721        C722   1.210       .  T
C723        C724   1.210       .  T
C725        C726   1.210       .  T
C727        C728   1.206   1_556  T
C729        C730   1.208       .  T
C731        C732   1.202       .  T
C733        C734   1.206       .  T
C735        C736   1.207       .  T
C737        C738   1.201       .  T
C739        C740   1.202       .  T
C741        C742   1.208       .  T
C743        C744   1.206       .  T
C745        C746   1.201       .  T
C747        C748   1.207       .  T
C749        C750   1.208   1_455  T
C751        C752   1.202       .  T
C753        C754   1.210       .  T
C755        C756   1.211       .  T
C757        C758   1.210       .  T
C759        C760   1.210       .  T
C761        C762   1.206       .  T
C763        C764   1.207   1_455  T
C765        C766   1.201       .  T
C767        C768   1.202       .  T
C769        C770   1.208   1_655  T
C771        C772   1.210       .  T
C773        C774   1.210       .  T
C775        C776   1.210       .  T
C777        C778   1.210       .  T
C779        C780   1.206       .  T
C781        C782   1.207   1_655  T
C783        C784   1.201       .  T
C785        C786   1.211       .  T
C787        C788   1.211       .  T
C789        C790   1.206       .  T
C791        C792   1.211       .  T
C793        C794   1.210       .  T
C795        C796   1.211       .  T
C797        C798   1.210       .  T
C799        C800   1.206       .  T
C801        C802   1.211       .  T
C803        C804   1.210       .  T
C805        C806   1.211       .  T
C807        C808   1.210       .  T
C809        C810   1.206       .  T
C811        C812   1.211       .  T
C813        C814   1.211       .  T
C815        C816   1.211       .  T
C817        C818   1.211       .  T
C819        C820   1.210       .  T
C821        C822   1.210       .  T
C823        C824   1.206       .  T
C825        C826   1.211       .  T
C827        C828   1.208       .  T
C829        C830   1.202       .  T
C831        C832   1.211       .  T
C833        C834   1.206   1_554  T
C835        C836   1.207       .  T
C837        C838   1.201       .  T
C839        C840   1.211       .  T
C841        C842   1.202       .  T
C843        C844   1.208       .  T
C845        C846   1.210       .  T
C847        C848   1.211       .  T
C849        C850   1.210       .  T
C851        C852   1.206   1_556  T
C853        C854   1.201       .  T
C855        C856   1.207       .  T
C857        C858   1.211       .  T
C859        C860   1.202       .  T
C861        C862   1.208       .  T
C863        C864   1.210       .  T
C865        C866   1.211       .  T
C867        C868   1.210       .  T
C869        C870   1.206   1_554  T
C871        C872   1.201       .  T
C873        C874   1.207       .  T
C875        C876   1.211       .  T
C877        C878   1.208       .  T
C879        C880   1.202       .  T
C881        C882   1.210       .  T
C883        C884   1.210       .  T
C885        C886   1.211       .  T
C887        C888   1.210       .  T
C889        C890   1.210       .  T
C891        C892   1.206   1_554  T
C893        C894   1.207       .  T
C895        C896   1.201       .  T
