geometry optimzed in LAMMPS
_audit_creation_date              2020-12-01 
_audit_creation_method            'lammps2cif' 
_symmetry_space_group_name_H-M    'P1' 
_symmetry_Int_Tables_number       1 
_symmetry_cell_setting            triclinic 
loop_ 
_symmetry_equiv_pos_as_xyz 
  x,y,z 
_cell_length_a                    51.02607326 
_cell_length_b                    51.701176477094236 
_cell_length_c                    37.7968330087105 
_cell_angle_alpha                 89.74120602356128 
_cell_angle_beta                  89.99002020951296 
_cell_angle_gamma                 90.09267184903698 
loop_ 
_atom_site_label 
_atom_site_type_symbol 
_atom_site_fract_x 
_atom_site_fract_y 
_atom_site_fract_z 
_atom_site_charge 
O1          O  0.85116683  0.79356350  0.39322938    -0.83000
C2          C  0.83938353  0.80485671  0.24775608     0.96300
O3          O  0.82634896  0.79004717  0.26754788    -0.72100
O4          O  0.85581567  0.75965039  0.30452069    -0.75700
Al5        Al  0.82777894  0.78201943  0.31583166     1.49000
C6          C  0.87551766  0.75455168  0.32330013     0.91600
O7          O  0.90080118  0.81565774  0.32610712    -0.81900
O8          O  0.83752121  0.85678401  0.35043705    -0.75500
Al9        Al  0.87437358  0.80488961  0.35805228     1.90100
O10         O  0.88034317  0.85021908  0.30762113    -0.74600
O11         O  0.80774698  0.83612218  0.29639655    -0.74400
O12         O  0.85146095  0.82451466  0.25972730    -0.80100
O13         O  0.79578882  0.80075646  0.32336384    -0.78300
O14         O  0.84872189  0.80868462  0.32665061    -1.14400
O15         O  0.82676307  0.76721639  0.36274706    -0.73600
C16         C  0.83923435  0.77241176  0.39080890     0.97100
C17         C  0.90133028  0.83788682  0.31253847     0.93500
Al18       Al  0.84447123  0.83942264  0.30560781     1.55600
O19         O  0.88348297  0.77031649  0.34611657    -0.78200
C20         C  0.79038401  0.81926650  0.30241503     0.97700
C21         C  0.85357623  0.85593956  0.37630169     0.92500
O22         O  0.87083177  0.83849823  0.37800898    -0.83600
O23         O  0.64675811  0.79128474  0.10450557    -0.83000
C24         C  0.66016023  0.80398984  0.24883579     0.96300
O25         O  0.67454732  0.79008615  0.22965725    -0.72100
O26         O  0.64599484  0.75794874  0.19376897    -0.75700
Al27       Al  0.67297409  0.78157248  0.18144357     1.49000
C28         C  0.62615475  0.75212098  0.17572235     0.91600
O29         O  0.59893348  0.81329158  0.17424582    -0.81900
O30         O  0.66178311  0.85473027  0.14455718    -0.75500
Al31       Al  0.62466120  0.80268441  0.14083872     1.90100
O32         O  0.61914483  0.84903665  0.18830114    -0.74600
O33         O  0.69198731  0.83590557  0.20005273    -0.74400
O34         O  0.64806716  0.82362597  0.23664156    -0.80100
O35         O  0.70415323  0.80111644  0.17237991    -0.78300
O36         O  0.65110338  0.80737653  0.17065964    -1.14400
O37         O  0.67399023  0.76725610  0.13486757    -0.73600
C38         C  0.66131088  0.77177128  0.10675205     0.97100
C39         C  0.59833180  0.83600668  0.18599533     0.93500
Al40       Al  0.65510904  0.83841759  0.19049587     1.55600
O41         O  0.61669329  0.76797093  0.15391358    -0.78200
C42         C  0.70957202  0.81965985  0.19290863     0.97700
C43         C  0.64535231  0.85309864  0.11910979     0.92500
O44         O  0.62734585  0.83624438  0.11965176    -0.83600
O45         O  0.35306164  0.82630105  0.35163497    -0.83000
C46         C  0.35078749  0.80174173  0.99429531     0.96300
O47         O  0.34754035  0.82373499  0.48507835    -0.72100
O48         O  0.38389924  0.84417650  0.44280764    -0.75700
Al49       Al  0.34693190  0.83717778  0.43716209     1.49000
C50         C  0.40118379  0.84378063  0.41892901     0.91600
O51         O  0.39744422  0.78077750  0.40382053    -0.81900
O52         O  0.32121826  0.76934105  0.38780069    -0.75500
Al53       Al  0.37403758  0.80391837  0.37917955     1.90100
O54         O  0.36560155  0.75578641  0.42315346    -0.74600
O55         O  0.30575085  0.79355674  0.44681952    -0.74400
O56         O  0.35095146  0.78179543  0.47660322    -0.80100
O57         O  0.30869175  0.83507982  0.43731640    -0.78300
O58         O  0.35233244  0.80648829  0.41618902    -1.14400
O59         O  0.34605198  0.85613747  0.39207975    -0.73600
C60         C  0.34849339  0.84958962  0.35970849     0.97100
C61         C  0.38955827  0.75951339  0.41679060     0.93500
Al62       Al  0.33698458  0.77782237  0.43208873     1.55600
O63         O  0.39686209  0.83141984  0.39102820    -0.78200
C64         C  0.29571817  0.81567863  0.44842276     0.97700
C65         C  0.33636355  0.76292831  0.36293322     0.92500
O66         O  0.35728123  0.77532485  0.35777274    -0.83600
O67         O  0.14459769  0.82862810  0.13683836    -0.83000
C68         C  0.15378065  0.80035532  0.49767539     0.96300
O69         O  0.15607767  0.82439708  0.00436166    -0.72100
O70         O  0.11903832  0.84488823  0.04304300    -0.75700
Al71       Al  0.15519040  0.83816954  0.05161379     1.49000
C72         C  0.10021426  0.84296182  0.06431246     0.91600
O73         O  0.10372186  0.78093174  0.08322267    -0.81900
O74         O  0.17892878  0.77059925  0.10466248    -0.75500
Al75       Al  0.12560978  0.80506854  0.10841572     1.90100
O76         O  0.13615878  0.75609367  0.06663162    -0.74600
O77         O  0.19672776  0.79454433  0.04572345    -0.74400
O78         O  0.15221311  0.78249485  0.01379300    -0.80100
O79         O  0.19312765  0.83615734  0.05364726    -0.78300
O80         O  0.14893364  0.80753434  0.07318696    -1.14400
O81         O  0.15444160  0.85775477  0.09596893    -0.73600
C82         C  0.15070755  0.85155077  0.12830653     0.97100
C83         C  0.11201804  0.75958823  0.07146192     0.93500
Al84       Al  0.16488356  0.77873206  0.05917482     1.55600
O85         O  0.10277590  0.83120217  0.09309118    -0.78200
C86         C  0.20589401  0.81700607  0.04179783     0.97700
C87         C  0.16300698  0.76507568  0.12922420     0.92500
O88         O  0.14203762  0.77758939  0.13239867    -0.83600
O89         O  0.35948953  0.71579343  0.10783501    -0.83000
C90         C  0.34349944  0.69645458  0.25379940     0.96300
O91         O  0.33507920  0.71444163  0.23449680    -0.72100
O92         O  0.36926109  0.74248278  0.20163276    -0.75700
Al93       Al  0.33859386  0.72496221  0.18750430     1.49000
C94         C  0.38914227  0.74685081  0.18283077     0.91600
O95         O  0.40698092  0.68450119  0.16997186    -0.81900
O96         O  0.34057420  0.65056889  0.14691346    -0.75500
Al97       Al  0.38134314  0.69977072  0.14132801     1.90100
O98         O  0.38402797  0.65201951  0.19061640    -0.74600
O99         O  0.31196589  0.67242915  0.20015863    -0.74400
O100        O  0.35524113  0.67713094  0.24051675    -0.80100
O101        O  0.30483094  0.71057679  0.17710220    -0.78300
O102        O  0.35610283  0.69679159  0.17373902    -1.14400
O103        O  0.33946477  0.74285430  0.14272812    -0.73600
C104        C  0.34926090  0.73752115  0.11297442     0.97100
C105        C  0.40591245  0.66223946  0.18321077     0.93500
Al106      Al  0.34861142  0.66567174  0.19256290     1.55600
O107        O  0.39451693  0.73241082  0.15707002    -0.78200
C108        C  0.29671582  0.69139532  0.19511361     0.97700
C109        C  0.35547672  0.65161806  0.12003796     0.92500
O110        O  0.37360143  0.66816584  0.11811023    -0.83600
O111        O  0.15080252  0.71739746  0.38501735    -0.83000
C112        C  0.16337317  0.69734300  0.24021533     0.96300
O113        O  0.17384345  0.71487776  0.25830193    -0.72100
O114        O  0.14158146  0.74533384  0.29086055    -0.75700
Al115      Al  0.17144624  0.72600547  0.30512938     1.49000
C116        C  0.12233673  0.75092152  0.31023285     0.91600
O117        O  0.10110528  0.69031960  0.32227595    -0.81900
O118        O  0.16510885  0.65225806  0.34953112    -0.75500
Al119      Al  0.12733944  0.70344164  0.35202776     1.90100
O120        O  0.12207978  0.65585991  0.30458090    -0.74600
O121        O  0.19506181  0.67180687  0.29460013    -0.74400
O122        O  0.15184511  0.67832429  0.25479617    -0.80100
O123        O  0.20435582  0.71005503  0.31563707    -0.78300
O124        O  0.15246466  0.69887218  0.32001918    -1.14400
O125        O  0.17178362  0.74385556  0.34952282    -0.73600
C126        C  0.16223800  0.73864673  0.37952954     0.97100
C127        C  0.10091430  0.66827054  0.30842825     0.93500
Al128      Al  0.15815269  0.66716711  0.30278489     1.55600
O129        O  0.11678060  0.73697022  0.33657085    -0.78200
C130        C  0.21123808  0.69013458  0.29850001     0.97700
C131        C  0.14910104  0.65373654  0.37529221     0.92500
O132        O  0.13178682  0.67108751  0.37557008    -0.83600
O133        O  0.91246203  0.38829840  0.01077305    -0.83000
C134        C  0.94812424  0.41254866  0.37500143     0.96300
O135        O  0.93065801  0.39738629  0.38726935    -0.72100
O136        O  0.90762417  0.36698614  0.43629133    -0.75700
Al137      Al  0.91222779  0.40374892  0.43147558     1.49000
C138        C  0.92202019  0.34900652  0.44785633     0.91600
O139        O  0.98550499  0.37904542  0.47850919    -0.81900
O140        O  0.98205268  0.43360469  0.48851665    -0.75500
Al141      Al  0.94910670  0.38404169  0.49068939     1.90100
O142        O  0.99153543  0.40404534  0.43231392    -0.74600
O143        O  0.94266221  0.45712865  0.45082171    -0.74400
O144        O  0.95836913  0.42952242  0.39417166    -0.80100
O145        O  0.91041655  0.44036815  0.42011482    -0.78300
O146        O  0.94244650  0.40555205  0.45508364    -1.14400
O147        O  0.89111695  0.40946304  0.47374135    -0.73600
C148        C  0.89396508  0.39734655  0.50290682     0.97100
C149        C  0.99947663  0.38633757  0.45255636     0.93500
Al150      Al  0.96633410  0.42930619  0.44282809     1.55600
O151        O  0.94255732  0.35384841  0.46476567    -0.78200
C152        C  0.92423093  0.45981813  0.42852784     0.97700
C153        C  0.97645448  0.42480953  0.01777855     0.92500
O154        O  0.95525950  0.41305435  0.02228687    -0.83600
O155        O  0.91135473  0.62202857  0.24935866    -0.83000
C156        C  0.94969301  0.58717627  0.37608300     0.96300
O157        O  0.92993654  0.60033031  0.36609220    -0.72100
O158        O  0.90388550  0.63125384  0.32065793    -0.75700
Al159      Al  0.91219452  0.59519447  0.32136799     1.49000
C160        C  0.91717293  0.65128216  0.31428728     0.91600
O161        O  0.98258481  0.62952832  0.27466571    -0.81900
O162        O  0.97999214  0.57359103  0.25827677    -0.75500
Al163      Al  0.94642155  0.62305036  0.26599615     1.90100
O164        O  0.99365531  0.60129008  0.31506111    -0.74600
O165        O  0.94686855  0.54512005  0.29957705    -0.74400
O166        O  0.96284148  0.57391295  0.35473158    -0.80100
O167        O  0.91327418  0.55875650  0.32973045    -0.78300
O168        O  0.94239394  0.59770162  0.29761382    -1.14400
O169        O  0.89208470  0.58996327  0.27798527    -0.73600
C170        C  0.89291242  0.60586854  0.25211270     0.97100
C171        C  0.99921914  0.62049525  0.29590843     0.93500
Al172      Al  0.96828681  0.57530992  0.30585268     1.55600
O173        O  0.93907156  0.64931534  0.29922439    -0.78200
C174        C  0.92855477  0.54065980  0.32143324     0.97700
C175        C  0.97397364  0.58547630  0.23023608     0.92500
O176        O  0.95431873  0.60008072  0.22928547    -0.83600
O177        O  0.59195573  0.61864946  0.24745951    -0.83000
C178        C  0.55880384  0.58073286  0.11919485     0.96300
O179        O  0.57647245  0.59633120  0.12971230    -0.72100
O180        O  0.59875262  0.62976249  0.17514852    -0.75700
Al181      Al  0.59416035  0.59299646  0.17472333     1.49000
C182        C  0.58394424  0.64856792  0.18241117     0.91600
O183        O  0.52075987  0.62005469  0.21951683    -0.81900
O184        O  0.52554405  0.56553470  0.23601176    -0.75500
Al185      Al  0.55723238  0.61656141  0.22970289     1.90100
O186        O  0.51307975  0.59235708  0.17696749    -0.74600
O187        O  0.56392418  0.53957283  0.19708086    -0.74400
O188        O  0.54699516  0.56613186  0.14055939    -0.80100
O189        O  0.59650929  0.55680484  0.16744136    -0.78300
O190        O  0.56366173  0.59246612  0.19758771    -1.14400
O191        O  0.61432025  0.58932178  0.21832989    -0.73600
C192        C  0.61174285  0.60425649  0.24476964     0.97100
C193        C  0.50602936  0.61127562  0.19569005     0.93500
Al194      Al  0.53973618  0.56778412  0.18872693     1.55600
O195        O  0.56261087  0.64462867  0.19822313    -0.78200
C196        C  0.58324813  0.53718375  0.17598058     0.97700
C197        C  0.53088455  0.57829770  0.26343109     0.92500
O198        O  0.55168342  0.59124164  0.26419533    -0.83600
O199        O  0.58357278  0.38028873  0.49462053    -0.83000
C200        C  0.54486968  0.40655454  0.12570730     0.96300
O201        O  0.56009269  0.38916587  0.11385318    -0.72100
O202        O  0.58177135  0.35801783  0.06451337    -0.75700
Al203      Al  0.58166058  0.39459023  0.07229308     1.49000
C204        C  0.56601348  0.34253499  0.05004084     0.91600
O205        O  0.50843023  0.38172294  0.01792230    -0.81900
O206        O  0.51970742  0.43613499  0.01043596    -0.75500
Al207      Al  0.54576620  0.38233006  0.00913593     1.90100
O208        O  0.50365089  0.40633345  0.06461457    -0.74600
O209        O  0.56085850  0.45307783  0.05434890    -0.74400
O210        O  0.53827964  0.42555696  0.10684871    -0.80100
O211        O  0.58803508  0.42963976  0.08626703    -0.78300
O212        O  0.55345323  0.40158422  0.04634104    -1.14400
O213        O  0.60550133  0.39921426  0.03281500    -0.73600
C214        C  0.60534181  0.38961235  0.50427109     0.97100
C215        C  0.49480216  0.38942536  0.04379070     0.93500
Al216      Al  0.53270533  0.42828403  0.05775891     1.55600
O217        O  0.54635693  0.35062784  0.03357394    -0.78200
C218        C  0.57891573  0.45152555  0.07761782     0.97700
C219        C  0.52664231  0.42667335  0.48410236     0.92500
O220        O  0.54645643  0.41265392  0.48194033    -0.83600
O221        O  0.84904223  0.21119353  0.35569970    -0.83000
C222        C  0.84290408  0.19820932  0.00585403     0.96300
O223        O  0.83014589  0.21355240  0.48371305    -0.72100
O224        O  0.85971173  0.24296163  0.44608007    -0.75700
Al225      Al  0.83013413  0.22225432  0.43575274     1.49000
C226        C  0.87879521  0.24790301  0.42606793     0.91600
O227        O  0.90071406  0.18740439  0.41837285    -0.81900
O228        O  0.83611761  0.14730352  0.39880028    -0.75500
Al229      Al  0.87342063  0.19889171  0.38886218     1.90100
O230        O  0.88075359  0.15319878  0.43877183    -0.74600
O231        O  0.80839998  0.16864898  0.45508337    -0.74400
O232        O  0.85410671  0.17826840  0.48905262    -0.80100
O233        O  0.79738942  0.20482599  0.42943209    -0.78300
O234        O  0.84930579  0.19517292  0.42244693    -1.14400
O235        O  0.82754489  0.23775632  0.38967983    -0.73600
C236        C  0.83698937  0.23213196  0.35976656     0.97100
C237        C  0.90169888  0.16534002  0.43238785     0.93500
Al238      Al  0.84501864  0.16433453  0.44333531     1.55600
O239        O  0.88414359  0.23306976  0.40084885    -0.78200
C240        C  0.79166508  0.18637260  0.45023796     0.97700
C241        C  0.85147851  0.14783241  0.37215514     0.92500
O242        O  0.86834278  0.16555908  0.36887704    -0.83600
O243        O  0.64378629  0.22111868  0.14003119    -0.83000
C244        C  0.66026384  0.19071921  0.49585520     0.96300
O245        O  0.67135389  0.21117564  0.01503685    -0.72100
O246        O  0.63637965  0.24121967  0.04309393    -0.75700
Al247      Al  0.66683534  0.22448893  0.06071083     1.49000
C248        C  0.61518778  0.24505308  0.05930403     0.91600
O249        O  0.59803142  0.18457401  0.08238211    -0.81900
O250        O  0.66298769  0.15220051  0.11120982    -0.75500
Al251      Al  0.62302330  0.20206564  0.10866085     1.90100
O252        O  0.62057790  0.15140397  0.06477454    -0.74600
O253        O  0.69259810  0.17115482  0.05571396    -0.74400
O254        O  0.64950507  0.17453092  0.01374064    -0.80100
O255        O  0.70022432  0.21055067  0.07429164    -0.78300
O256        O  0.64874687  0.19715945  0.07772869    -1.14400
O257        O  0.66502496  0.24561169  0.10268753    -0.73600
C258        C  0.65391949  0.24249896  0.13223441     0.97100
C259        C  0.59883267  0.16252523  0.06912625     0.93500
Al260      Al  0.65594684  0.16502672  0.06300624     1.55600
O261        O  0.60977698  0.23206612  0.08655555    -0.78200
C262        C  0.70819802  0.18997770  0.05941809     0.97700
C263        C  0.64832936  0.15595225  0.13806615     0.92500
O264        O  0.63078493  0.17301411  0.13716482    -0.83600
O265        O  0.08849735  0.11831127  0.00607544    -0.83000
C266        C  0.05399087  0.08990341  0.37592238     0.96300
O267        O  0.07251591  0.10350141  0.38842878    -0.72100
O268        O  0.09683733  0.13196683  0.43726527    -0.75700
Al269      Al  0.08950777  0.09577295  0.43320186     1.49000
C270        C  0.08244807  0.15106125  0.44402753     0.91600
O271        O  0.01684452  0.12581617  0.47455037    -0.81900
O272        O  0.01705539  0.07017547  0.48783015    -0.75500
Al273      Al  0.05198376  0.11920799  0.48828787     1.90100
O274        O  0.00940596  0.09937311  0.43026642    -0.74600
O275        O  0.05563202  0.04396311  0.45135140    -0.74400
O276        O  0.04313692  0.07263856  0.39419541    -0.80100
O277        O  0.08956710  0.05921222  0.42241844    -0.78300
O278        O  0.05843473  0.09590031  0.45511824    -1.14400
O279        O  0.10872428  0.08927157  0.47681917    -0.73600
C280        C  0.10631863  0.10356888  0.50405339     0.97100
C281        C  0.00284403  0.11823940  0.44921753     0.93500
Al282      Al  0.03365646  0.07323151  0.44236116     1.55600
O283        O  0.06081657  0.14755002  0.45909679    -0.78200
C284        C  0.07471775  0.04040572  0.43029991     0.97700
C285        C  0.02490935  0.08044892  0.01840103     0.92500
O286        O  0.04544862  0.09371931  0.02146439    -0.83600
O287        O  0.08433629  0.88951237  0.23473260    -0.83000
C288        C  0.05228377  0.91318668  0.36977514     0.96300
O289        O  0.06984207  0.89883779  0.35652986    -0.72100
O290        O  0.09281041  0.87041545  0.30666055    -0.75700
Al291      Al  0.08777435  0.90692748  0.31269741     1.49000
C292        C  0.07823540  0.85252674  0.29542685     0.91600
O293        O  0.01441069  0.88248558  0.26667934    -0.81900
O294        O  0.01688006  0.93772800  0.25867075    -0.75500
Al295      Al  0.05020424  0.88815286  0.25397595     1.90100
O296        O  0.00801723  0.90640088  0.31380312    -0.74600
O297        O  0.05661975  0.96054845  0.29645332    -0.74400
O298        O  0.04204420  0.93109711  0.35213560    -0.80100
O299        O  0.08930718  0.94342570  0.32563344    -0.78300
O300        O  0.05719114  0.90900632  0.28989867    -1.14400
O301        O  0.10842873  0.91368276  0.27013790    -0.73600
C302        C  0.10533415  0.90150156  0.24114510     0.97100
C303        C  0.00043718  0.88913754  0.29268169     0.93500
Al304      Al  0.03325295  0.93216787  0.30375985     1.55600
O305        O  0.05743811  0.85751386  0.27911543    -0.78200
C306        C  0.07501255  0.96294395  0.31879569     0.97700
C307        C  0.02135562  0.92841686  0.22859515     0.92500
O308        O  0.04206429  0.91589175  0.22361373    -0.83600
O309        O  0.14845965  0.28823604  0.35579539    -0.83000
C310        C  0.15870848  0.30669249  0.00354862     0.96300
O311        O  0.17369926  0.29113523  0.48250326    -0.72100
O312        O  0.14341188  0.25942912  0.44845291    -0.75700
Al313      Al  0.17205126  0.28068608  0.43494331     1.49000
C314        C  0.12350781  0.25429572  0.43015440     0.91600
O315        O  0.10045497  0.31563926  0.42122979    -0.81900
O316        O  0.16519314  0.35412921  0.39484844    -0.75500
Al317      Al  0.12636740  0.30274343  0.39033244     1.90100
O318        O  0.12140549  0.35075349  0.43598164    -0.74600
O319        O  0.19357109  0.33437249  0.45156453    -0.74400
O320        O  0.14754121  0.32503911  0.48626140    -0.80100
O321        O  0.20416065  0.29849918  0.42496553    -0.78300
O322        O  0.15198296  0.30720655  0.42135228    -1.14400
O323        O  0.17278900  0.26373829  0.38983548    -0.73600
C324        C  0.16089268  0.26753302  0.36091856     0.97100
C325        C  0.10033046  0.33831801  0.43277272     0.93500
Al326      Al  0.15678582  0.33856477  0.44036185     1.55600
O327        O  0.11598816  0.26924295  0.40590849    -0.78200
C328        C  0.21042777  0.31715582  0.44499999     0.97700
C329        C  0.14946447  0.35276999  0.36863832     0.92500
O330        O  0.13190085  0.33542827  0.36735690    -0.83600
O331        O  0.35525741  0.27354144  0.14304985    -0.83000
C332        C  0.34772975  0.29628335  0.50334968     0.96300
O333        O  0.35157708  0.28099756  0.02459710    -0.72100
O334        O  0.36626055  0.25485830  0.07838267    -0.75700
Al335      Al  0.33611445  0.27504512  0.06820288     1.49000
C336        C  0.38971973  0.26092505  0.08484484     0.91600
O337        O  0.39130222  0.33269260  0.10781344    -0.81900
O338        O  0.34035821  0.35433502  0.10980718    -0.75500
Al339      Al  0.37046255  0.30353559  0.12151029     1.90100
O340        O  0.37594612  0.34293765  0.05568315    -0.74600
O341        O  0.30281137  0.32949125  0.06818381    -0.74400
O342        O  0.33901048  0.32118869  0.01616873    -0.80100
O343        O  0.30356324  0.28892409  0.05186479    -0.78300
O344        O  0.34854080  0.30453218  0.08494452    -1.14400
O345        O  0.32008653  0.26516476  0.11179414    -0.73600
C346        C  0.33505148  0.25992004  0.13750381     0.97100
C347        C  0.39412867  0.34366160  0.07820135     0.93500
Al348      Al  0.34022138  0.33468907  0.06447453     1.55600
O349        O  0.39543210  0.28282162  0.09716126    -0.78200
C350        C  0.29196108  0.31047877  0.05268292     0.97700
C351        C  0.34258735  0.34711007  0.14212610     0.92500
O352        O  0.34805097  0.32389092  0.14921581    -0.83600
O353        O  0.04553844  0.58935631  0.47882050    -0.83000
C354        C  0.04984430  0.59533751  0.12286937     0.96300
O355        O  0.04280199  0.57615131  0.10497101    -0.72100
O356        O  0.00854635  0.59711957  0.06393595    -0.75700
Al357      Al  0.03623107  0.57368136  0.05633109     1.49000
C358        C  0.00039604  0.61472459  0.04363946     0.91600
O359        O  0.05352607  0.65069026  0.03191181    -0.81900
O360        O  0.11001991  0.59934309  0.02867495    -0.75500
Al361      Al  0.05053653  0.61936537  0.00691720     1.90100
O362        O  0.08900791  0.64189381  0.06169811    -0.74600
O363        O  0.09168132  0.56902032  0.08375145    -0.74400
O364        O  0.06623264  0.61159640  0.11070985    -0.80100
O365        O  0.06281916  0.54734236  0.05246742    -0.78300
O366        O  0.05812229  0.59923609  0.04366247    -1.14400
O367        O  0.02208955  0.56640937  0.00999476    -0.73600
C368        C  0.02535629  0.57585310  0.48333851     0.97100
C369        C  0.07300156  0.65811554  0.04920494     0.93500
Al370      Al  0.08705409  0.60489788  0.06898906     1.55600
O371        O  0.01401896  0.62197946  0.01748026    -0.78200
C372        C  0.08093794  0.54763568  0.07573440     0.97700
C373        C  0.10732871  0.61057395  0.99880357     0.92500
O374        O  0.08476655  0.62027560  0.48949887    -0.83600
O375        O  0.04293773  0.41151362  0.26876454    -0.83000
C376        C  0.05277519  0.41069511  0.12246340     0.96300
O377        O  0.04287095  0.42855335  0.14047900    -0.72100
O378        O  0.00850663  0.40422765  0.17931435    -0.75700
Al379      Al  0.03442107  0.42967371  0.18893785     1.49000
C380        C  0.00084386  0.38631653  0.19965528     0.91600
O381        O  0.05820692  0.35370666  0.21260804    -0.81900
O382        O  0.10936151  0.40974944  0.22158501    -0.75500
Al383      Al  0.05100023  0.38431884  0.23799286     1.90100
O384        O  0.09353220  0.36683035  0.18527219    -0.74600
O385        O  0.09068607  0.43950770  0.16654119    -0.74400
O386        O  0.07026235  0.39596450  0.13540529    -0.80100
O387        O  0.05849681  0.45848986  0.19488017    -0.78300
O388        O  0.05808570  0.40579219  0.20235678    -1.14400
O389        O  0.01821842  0.43486800  0.23478715    -0.73600
C390        C  0.02234407  0.42432145  0.26444216     0.97100
C391        C  0.07914168  0.34880999  0.19661380     0.93500
Al392      Al  0.08852583  0.40335505  0.17924939     1.55600
O393        O  0.01503484  0.37878921  0.22510944    -0.78200
C394        C  0.07805602  0.45988294  0.17388200     0.97700
C395        C  0.10625393  0.39780350  0.25087843     0.92500
O396        O  0.08528527  0.38568175  0.25745973    -0.83600
O397        O  0.95762474  0.90468531  0.47904821    -0.83000
C398        C  0.94568555  0.91647344  0.12351198     0.96300
O399        O  0.95901743  0.93081437  0.10343516    -0.72100
O400        O  0.99086736  0.90367489  0.06614478    -0.75700
Al401      Al  0.96652932  0.92978611  0.05491797     1.49000
C402        C  0.99677657  0.88434794  0.04779877     0.91600
O403        O  0.93671103  0.85605352  0.04491866    -0.81900
O404        O  0.89095317  0.91604599  0.02283197    -0.75500
Al405      Al  0.94552925  0.88288284  0.01319309     1.90100
O406        O  0.90091996  0.87356005  0.06478938    -0.74600
O407        O  0.91135883  0.94637503  0.07634779    -0.74400
O408        O  0.92629220  0.90343013  0.11216898    -0.80100
O409        O  0.94557755  0.96003162  0.04715295    -0.78300
O410        O  0.94068114  0.90761197  0.04487710    -1.14400
O411        O  0.98081635  0.93166890  0.00788559    -0.73600
C412        C  0.97782050  0.91845470  0.48019034     0.97100
C413        C  0.91426741  0.85362105  0.05819365     0.93500
Al414      Al  0.90980191  0.90981334  0.06698195     1.55600
O415        O  0.98128824  0.87580207  0.02470141    -0.78200
C416        C  0.92721762  0.96441679  0.06895024     0.97700
C417        C  0.89243584  0.90068884  0.99658172     0.92500
O418        O  0.91337895  0.88369142  0.49562986    -0.83600
O419        O  0.95554808  0.09608775  0.27397967    -0.83000
C420        C  0.95007616  0.09133996  0.12783710     0.96300
O421        O  0.96051945  0.07456534  0.14745588    -0.72100
O422        O  0.99297100  0.09869879  0.18774996    -0.75700
Al423      Al  0.96672175  0.07398028  0.19652329     1.49000
C424        C  0.99930520  0.11782000  0.20633183     0.91600
O425        O  0.94108860  0.15007185  0.21002315    -0.81900
O426        O  0.89147402  0.09180275  0.22466115    -0.75500
Al427      Al  0.94786475  0.12127731  0.23983571     1.90100
O428        O  0.90556631  0.13461730  0.18631950    -0.74600
O429        O  0.91160973  0.06225582  0.17043806    -0.74400
O430        O  0.93141937  0.10555404  0.13878176    -0.80100
O431        O  0.94307008  0.04548223  0.20223884    -0.78300
O432        O  0.94236225  0.09782196  0.20645288    -1.14400
O433        O  0.98002382  0.06989959  0.24385268    -0.73600
C434        C  0.97555001  0.08213400  0.27206061     0.97100
C435        C  0.91954555  0.15371862  0.19483453     0.93500
Al436      Al  0.91233814  0.09839951  0.18221133     1.55600
O437        O  0.98389116  0.12686206  0.22916777    -0.78200
C438        C  0.92524092  0.04288311  0.17908251     0.97700
C439        C  0.89321888  0.10564009  0.25247914     0.92500
O440        O  0.91283956  0.12018604  0.25743218    -0.83600
O441        O  0.87009436  0.66849012  0.13236339    -0.83000
C442        C  0.84789123  0.69880907  0.49836018     0.96300
O443        O  0.85463588  0.67732435  0.01258238    -0.72100
O444        O  0.88176329  0.65342137  0.06362191    -0.75700
Al445      Al  0.84618273  0.66327644  0.05875621     1.49000
C446        C  0.90223688  0.66658087  0.06734080     0.91600
O447        O  0.88213075  0.73519382  0.09221125    -0.81900
O448        O  0.82424960  0.73673152  0.10815545    -0.75500
Al449      Al  0.87388940  0.70124502  0.10871672     1.90100
O450        O  0.85358393  0.74307366  0.05018375    -0.74600
O451        O  0.79617935  0.69965134  0.07394052    -0.74400
O452        O  0.82587437  0.70911864  0.01599762    -0.80100
O453        O  0.80971975  0.66477997  0.04749602    -0.78300
O454        O  0.84878205  0.69492073  0.07745890    -1.14400
O455        O  0.83851594  0.64746737  0.10431677    -0.73600
C456        C  0.85353666  0.65018123  0.13105321     0.97100
C457        C  0.87340756  0.74955088  0.06792077     0.93500
Al458      Al  0.82667319  0.71980234  0.06357499     1.55600
O459        O  0.90113375  0.68934615  0.07865028    -0.78200
C460        C  0.79156035  0.68051494  0.05404532     0.97700
C461        C  0.83571715  0.73356908  0.13736797     0.92500
O462        O  0.85055392  0.71448172  0.14246427    -0.83600
O463        O  0.63366721  0.66395047  0.36677112    -0.83000
C464        C  0.66317579  0.69931110  0.99627965     0.96300
O465        O  0.65347015  0.67792860  0.48377336    -0.72100
O466        O  0.62316490  0.65418010  0.43696986    -0.75700
Al467      Al  0.65998099  0.66224622  0.43872905     1.49000
C468        C  0.60356201  0.66893621  0.43438644     0.91600
O469        O  0.62645162  0.73306899  0.39706405    -0.81900
O470        O  0.68234011  0.73272533  0.38096873    -0.75500
Al471      Al  0.63277971  0.69811917  0.38581616     1.90100
O472        O  0.65420944  0.74253098  0.43937152    -0.74600
O473        O  0.71050436  0.69706775  0.41867903    -0.74400
O474        O  0.68192782  0.70983986  0.47699365    -0.80100
O475        O  0.69704579  0.66324328  0.44795765    -0.78300
O476        O  0.65791753  0.69296576  0.41731545    -1.14400
O477        O  0.66617355  0.64434837  0.39434871    -0.73600
C478        C  0.65022288  0.64583310  0.36850484     0.97100
C479        C  0.63496697  0.74835777  0.42006401     0.93500
Al480      Al  0.68060505  0.71812717  0.42788785     1.55600
O481        O  0.60588715  0.69018821  0.41845353    -0.78200
C482        C  0.71536443  0.67860326  0.43973133     0.97700
C483        C  0.66998722  0.72792224  0.35269794     0.92500
O484        O  0.65686264  0.70739869  0.35032002    -0.83600
O485        O  0.41804755  0.90198913  0.26188138    -0.83000
C486        C  0.46078135  0.91819819  0.12637306     0.96300
O487        O  0.44022134  0.90527509  0.13237520    -0.72100
O488        O  0.42453747  0.86672759  0.17111972    -0.75700
Al489      Al  0.41884423  0.90339214  0.17416822     1.49000
C490        C  0.42546926  0.85109846  0.19649800     0.91600
O491        O  0.47960638  0.87434099  0.22085057    -0.81900
O492        O  0.47137224  0.94618318  0.24559258    -0.75500
Al493      Al  0.44854320  0.88860466  0.24115066     1.90100
O494        O  0.49730363  0.91141400  0.20267780    -0.74600
O495        O  0.44227594  0.96191615  0.18811486    -0.74400
O496        O  0.47189280  0.93044970  0.15023425    -0.80100
O497        O  0.40913238  0.93876714  0.16798595    -0.78300
O498        O  0.44499892  0.90971965  0.20414526    -1.14400
O499        O  0.39330960  0.89990021  0.21352247    -0.73600
C500        C  0.39564061  0.90042895  0.24737509     0.97100
C501        C  0.49888679  0.88708843  0.20817075     0.93500
Al502      Al  0.46832308  0.93529755  0.19754011     1.55600
O503        O  0.42982014  0.85955786  0.22661858    -0.78200
C504        C  0.42099447  0.96015378  0.17058520     0.97700
C505        C  0.47954090  0.93014149  0.26810352     0.92500
O506        O  0.46896664  0.90859037  0.26992358    -0.83600
O507        O  0.41191412  0.12441859  0.50137498    -0.83000
C508        C  0.45004447  0.09636116  0.13244916     0.96300
O509        O  0.43394742  0.11372069  0.12255583    -0.72100
O510        O  0.41092207  0.14624869  0.07641172    -0.75700
Al511      Al  0.41087760  0.10910803  0.08188859     1.49000
C512        C  0.42775121  0.16172870  0.06395173     0.91600
O513        O  0.48302569  0.12317167  0.02697366    -0.81900
O514        O  0.47182579  0.06995599  0.01712689    -0.75500
Al515      Al  0.44597093  0.12337012  0.01897831     1.90100
O516        O  0.48901102  0.09728675  0.07252753    -0.74600
O517        O  0.43093287  0.05137548  0.05969863    -0.74400
O518        O  0.45357763  0.07647177  0.11411975    -0.80100
O519        O  0.40454817  0.07314484  0.09439028    -0.78300
O520        O  0.43860907  0.10280083  0.05498201    -1.14400
O521        O  0.38648869  0.10551097  0.04214591    -0.73600
C522        C  0.38908844  0.11730439  0.01259867     0.97100
C523        C  0.49733061  0.11463880  0.05176432     0.93500
Al524      Al  0.45935598  0.07572706  0.06477213     1.55600
O525        O  0.44649030  0.15365436  0.04584441    -0.78200
C526        C  0.41316681  0.05158177  0.08348006     0.97700
C527        C  0.46655616  0.07640899  0.48710046     0.92500
O528        O  0.44734848  0.09133675  0.48588354    -0.83600
O529        O  0.37033066  0.16400632  0.37986458    -0.83000
C530        C  0.33681332  0.19138569  0.24701155     0.96300
O531        O  0.34681788  0.17134886  0.26127377    -0.72100
O532        O  0.37638488  0.14804842  0.31092438    -0.75700
Al533      Al  0.34111569  0.16086875  0.30996572     1.49000
C534        C  0.39799091  0.15996226  0.31124429     0.91600
O535        O  0.38583488  0.22978680  0.34176620    -0.81900
O536        O  0.32887912  0.23612306  0.35798967    -0.75500
Al537      Al  0.37493688  0.19633918  0.35635580     1.90100
O538        O  0.35916334  0.24059692  0.29928437    -0.74600
O539        O  0.29657317  0.20429620  0.32177325    -0.74400
O540        O  0.32806833  0.20974030  0.26530119    -0.80100
O541        O  0.30477688  0.16573544  0.30243940    -0.78300
O542        O  0.34840352  0.19264781  0.32619393    -1.14400
O543        O  0.33419798  0.14767470  0.35755926    -0.73600
C544        C  0.35099109  0.14891939  0.38237946     0.97100
C545        C  0.37893673  0.24538236  0.31802304     0.93500
Al546      Al  0.32965385  0.22011216  0.31247230     1.55600
O547        O  0.39941119  0.18246182  0.32384903    -0.78200
C548        C  0.28945727  0.18467438  0.30443309     0.97700
C549        C  0.33959131  0.23089910  0.38730140     0.92500
O550        O  0.35341155  0.21087036  0.39137800    -0.83600
O551        O  0.13251281  0.16521338  0.11760691    -0.83000
C552        C  0.15954731  0.19607404  0.25133335     0.96300
O553        O  0.14786688  0.17694963  0.23759524    -0.72100
O554        O  0.12043122  0.15262138  0.18839941    -0.75700
Al555      Al  0.15628275  0.16322048  0.19175737     1.49000
C556        C  0.09970691  0.16533052  0.18291610     0.91600
O557        O  0.11801769  0.23276520  0.15152580    -0.81900
O558        O  0.17307766  0.23774704  0.13965966    -0.75500
Al559      Al  0.12798991  0.19845051  0.13834941     1.90100
O560        O  0.14215788  0.24145068  0.19758223    -0.74600
O561        O  0.20392794  0.20365088  0.17567416    -0.74400
O562        O  0.17353285  0.21112024  0.23313029    -0.80100
O563        O  0.19293328  0.16720534  0.20152104    -0.78300
O564        O  0.15214688  0.19421514  0.17155475    -1.14400
O565        O  0.16451657  0.14649655  0.14719010    -0.73600
C566        C  0.14941435  0.14751221  0.12044741     0.97100
C567        C  0.12327491  0.24711788  0.17740979     0.93500
Al568      Al  0.17175974  0.22105272  0.18509300     1.55600
O569        O  0.10066533  0.18693476  0.16768227    -0.78200
C570        C  0.20993308  0.18435087  0.19480237     0.97700
C571        C  0.16373859  0.23213822  0.10969730     0.92500
O572        O  0.15254321  0.21075596  0.10528282    -0.83600
O573        O  0.54209038  0.89317941  0.00363828    -0.83000
C574        C  0.55927616  0.92099844  0.36542030     0.96300
O575        O  0.54623281  0.93259291  0.38907573    -0.72100
O576        O  0.51141982  0.91088496  0.43105400    -0.75700
Al577      Al  0.54273838  0.93057409  0.43828421     1.49000
C578        C  0.50560050  0.88729334  0.43346144     0.91600
O579        O  0.56639607  0.85237393  0.42478904    -0.81900
O580        O  0.61376445  0.90549351  0.46352990    -0.75500
Al581      Al  0.55644876  0.87438128  0.46199897     1.90100
O582        O  0.60400008  0.86924069  0.41488057    -0.74600
O583        O  0.59940635  0.94096220  0.41243683    -0.74400
O584        O  0.57822883  0.90553270  0.37288495    -0.80100
O585        O  0.56879138  0.95741883  0.44414777    -0.78300
O586        O  0.56470991  0.90362646  0.43994788    -1.14400
O587        O  0.53567128  0.93093142  0.48764274    -0.73600
C588        C  0.52992855  0.91391703  0.00811273     0.97100
C589        C  0.58968424  0.84964423  0.41579772     0.93500
Al590      Al  0.59590189  0.90518601  0.41824471     1.55600
O591        O  0.52244076  0.87095379  0.44273452    -0.78200
C592        C  0.58678347  0.96034580  0.42147770     0.97700
C593        C  0.60952922  0.88855215  0.48770419     0.92500
O594        O  0.58873698  0.87608396  0.98870798    -0.83600
O595        O  0.55357222  0.09638758  0.22718310    -0.83000
C596        C  0.53542497  0.09493307  0.37061237     0.96300
O597        O  0.53313794  0.07589281  0.35020387    -0.72100
O598        O  0.50328298  0.09201580  0.30014012    -0.75700
Al599      Al  0.53535518  0.07330839  0.30100300     1.49000
C600        C  0.49613533  0.11036058  0.28034160     0.91600
O601        O  0.54492019  0.15328538  0.28661898    -0.81900
O602        O  0.60702996  0.10772417  0.29197802    -0.75500
Al603      Al  0.54956756  0.12338863  0.25919901     1.90100
O604        O  0.57753195  0.14689620  0.32283670    -0.74600
O605        O  0.58620019  0.07508897  0.34275176    -0.74400
O606        O  0.55226346  0.11265268  0.36446364    -0.80100
O607        O  0.56527877  0.05050667  0.30537066    -0.78300
O608        O  0.55464696  0.10219673  0.29584660    -1.14400
O609        O  0.53162485  0.06544979  0.25142749    -0.73600
C610        C  0.53564707  0.08000928  0.22506603     0.97100
C611        C  0.56100873  0.16180315  0.30869868     0.93500
Al612      Al  0.57902240  0.10993967  0.32775815     1.55600
O613        O  0.51232849  0.12125188  0.25996160    -0.78200
C614        C  0.57983458  0.05276219  0.33253149     0.97700
C615        C  0.60645073  0.11961075  0.26221219     0.92500
O616        O  0.58562287  0.13008401  0.25134177    -0.83600
O617        O  0.86503540  0.33632837  0.11786570    -0.83000
C618        C  0.83980269  0.30662013  0.25263898     0.96300
O619        O  0.85200738  0.32551863  0.23879118    -0.72100
O620        O  0.87863022  0.35046631  0.18798857    -0.75700
Al621      Al  0.84261051  0.33975613  0.19312013     1.49000
C622        C  0.89932405  0.33790323  0.18178359     0.91600
O623        O  0.88009695  0.26932537  0.15580099    -0.81900
O624        O  0.82420569  0.26480426  0.14388576    -0.75500
Al625      Al  0.87025904  0.30343076  0.14022998     1.90100
O626        O  0.85456733  0.26180263  0.20144351    -0.74600
O627        O  0.79443151  0.30090067  0.17680939    -0.74400
O628        O  0.82380946  0.29339788  0.23514796    -0.80100
O629        O  0.80519929  0.33608197  0.20474852    -0.78300
O630        O  0.84617167  0.30862023  0.17331517    -1.14400
O631        O  0.83416749  0.35641975  0.14828782    -0.73600
C632        C  0.84873046  0.35463919  0.12094031     0.97100
C633        C  0.87327513  0.25525150  0.18163160     0.93500
Al634      Al  0.82577523  0.28263249  0.18780025     1.55600
O635        O  0.89806924  0.31574059  0.16844170    -0.78200
C636        C  0.78808322  0.31893796  0.19766254     0.97700
C637        C  0.83382054  0.26916319  0.11381219     0.92500
O638        O  0.84584183  0.28999313  0.10774347    -0.83600
O639        O  0.64534140  0.32031859  0.39576589    -0.83000
C640        C  0.64535281  0.30392883  0.24803062     0.96300
O641        O  0.65281668  0.32434985  0.26300296    -0.72100
O642        O  0.61677161  0.34427642  0.30481232    -0.75700
Al643      Al  0.65247306  0.33426890  0.31193906     1.49000
C644        C  0.59871082  0.34399402  0.32760057     0.91600
O645        O  0.59538228  0.28198743  0.34307335    -0.81900
O646        O  0.66893512  0.25998073  0.35230123    -0.75500
Al647      Al  0.62169332  0.30142459  0.36713327     1.90100
O648        O  0.62248619  0.25522658  0.31692522    -0.74600
O649        O  0.68784346  0.28746055  0.29609454    -0.74400
O650        O  0.64015619  0.28385916  0.26571331    -0.80100
O651        O  0.68967422  0.32752870  0.31437556    -0.78300
O652        O  0.64307095  0.30324845  0.32968352    -1.14400
O653        O  0.65362900  0.35140289  0.35783126    -0.73600
C654        C  0.65120667  0.34363015  0.38959594     0.97100
C655        C  0.59977741  0.26087633  0.32758964     0.93500
Al656      Al  0.65410552  0.27423330  0.30961427     1.55600
O657        O  0.60166143  0.33159189  0.35612854    -0.78200
C658        C  0.70017434  0.30869076  0.29815867     0.97700
C659        C  0.65491332  0.25583709  0.37943374     0.92500
O660        O  0.63587222  0.27048017  0.38624974    -0.83600
O661        O  0.47036869  0.60456850  0.01892561    -0.83000
C662        C  0.46226472  0.59736761  0.37820916     0.96300
O663        O  0.47782830  0.59201074  0.40267310    -0.72100
O664        O  0.50012496  0.60539569  0.45930159    -0.75700
Al665      Al  0.47373568  0.58078328  0.44809657     1.49000
C666        C  0.50022970  0.62958510  0.46403964     0.91600
O667        O  0.42861541  0.65061932  0.47454088    -0.81900
O668        O  0.39402919  0.60653660  0.46916236    -0.75500
Al669      Al  0.44944192  0.62410142  0.49222361     1.90100
O670        O  0.42049545  0.63987508  0.42034738    -0.74600
O671        O  0.41257035  0.56586691  0.42850478    -0.74400
O672        O  0.43791203  0.59996812  0.38381354    -0.80100
O673        O  0.45323224  0.55241749  0.43195205    -0.78300
O674        O  0.44701784  0.60218497  0.45598276    -1.14400
O675        O  0.47437799  0.56684700  0.49493860    -0.73600
C676        C  0.48013267  0.58247832  0.01827412     0.97100
C677        C  0.42190286  0.65686967  0.44400252     0.93500
Al678      Al  0.41853567  0.60293976  0.42812430     1.55600
O679        O  0.47932614  0.64137761  0.47216227    -0.78200
C680        C  0.42979957  0.54878405  0.42243356     0.97700
C681        C  0.39802448  0.60695335  0.50269842     0.92500
O682        O  0.41963006  0.60884956  0.01428606    -0.83600
O683        O  0.45046538  0.40841412  0.23313740    -0.83000
C684        C  0.44802872  0.41588881  0.37859805     0.96300
O685        O  0.45539420  0.43364823  0.35811378    -0.72100
O686        O  0.48952501  0.40851746  0.32006186    -0.75700
Al687      Al  0.46205165  0.43167386  0.30905966     1.49000
C688        C  0.49670463  0.38918416  0.30232320     0.91600
O689        O  0.44062110  0.35434046  0.29753418    -0.81900
O690        O  0.38720636  0.40837088  0.28488834    -0.75500
Al691      Al  0.44532901  0.38302558  0.26777156     1.90100
O692        O  0.40510567  0.36738183  0.32427516    -0.74600
O693        O  0.40719915  0.44200583  0.33611268    -0.74400
O694        O  0.43041967  0.39980907  0.36931611    -0.80100
O695        O  0.43643258  0.45779338  0.29993490    -0.78300
O696        O  0.43899982  0.40625880  0.30097439    -1.14400
O697        O  0.47585092  0.43433704  0.26207825    -0.73600
C698        C  0.47056070  0.42224644  0.23417334     0.97100
C699        C  0.41974320  0.34933949  0.31357770     0.93500
Al700      Al  0.40964396  0.40459977  0.32658457     1.55600
O701        O  0.48219066  0.37963292  0.27855098    -0.78200
C702        C  0.41964493  0.46153941  0.32415535     0.97700
C703        C  0.38936959  0.39438962  0.25721402     0.92500
O704        O  0.41011211  0.38181265  0.25115159    -0.83600
C705        C  0.42475509  0.52656164  0.39767835    -0.07300
C706        C  0.44312697  0.52336140  0.37032434    -0.18500
C707        C  0.44056967  0.50435839  0.34420536     0.09900
C708        C  0.41928211  0.48659151  0.34508517    -0.07300
C709        C  0.40034370  0.49019103  0.37213986    -0.18500
C710        C  0.40272839  0.50991864  0.39802575     0.09900
S711        S  0.46639168  0.50352621  0.31180982    -0.33500
S712        S  0.37799325  0.51173126  0.43190738    -0.33500
H713        H  0.39444650  0.52191372  0.45824727     0.27900
H714        H  0.44892133  0.50262428  0.28302509     0.27900
H715        H  0.45986491  0.53627234  0.36887324     0.18500
H716        H  0.38404156  0.47682101  0.37414930     0.18500
C717        C  0.57311405  0.35689354  0.32104660    -0.07300
C718        C  0.55061550  0.34507488  0.33548343    -0.18500
C719        C  0.52549295  0.35500933  0.32968968     0.09900
C720        C  0.52253442  0.37770463  0.30928469    -0.07300
C721        C  0.54479114  0.38972452  0.29485982    -0.18500
C722        C  0.56998381  0.37958970  0.30030784     0.09900
S723        S  0.49833767  0.33743608  0.34909537    -0.33500
S724        S  0.59691709  0.39674572  0.28010046    -0.33500
H725        H  0.61472106  0.39226308  0.30764625     0.27900
H726        H  0.47887479  0.35635841  0.34564000     0.27900
H727        H  0.55251405  0.32751251  0.35104109     0.18500
H728        H  0.54248353  0.40712745  0.27904529     0.18500
C729        C  0.76387718  0.31687379  0.22085095    -0.07300
C730        C  0.75755565  0.33755776  0.24364202    -0.18500
C731        C  0.73854212  0.33526510  0.27076931     0.09900
C732        C  0.72492057  0.31159777  0.27614618    -0.07300
C733        C  0.73192168  0.29074201  0.25406270    -0.18500
C734        C  0.75024345  0.29317996  0.22642635     0.09900
S735        S  0.73312481  0.36326401  0.29786785    -0.33500
S736        S  0.75439882  0.26501984  0.19906094    -0.33500
H737        H  0.75125138  0.27891822  0.16724318     0.27900
H738        H  0.73257108  0.34903136  0.32969141     0.27900
H739        H  0.76804057  0.35569561  0.24096540     0.18500
H740        H  0.72184428  0.27238571  0.25679831     0.18500
C741        C  0.56226447  0.18980535  0.31529060    -0.07300
C742        C  0.56431551  0.20632512  0.28591220    -0.18500
C743        C  0.57273231  0.23185823  0.28992425     0.09900
C744        C  0.57931118  0.24106033  0.32374365    -0.07300
C745        C  0.57334620  0.22581595  0.35346713    -0.18500
C746        C  0.56503525  0.20013017  0.34955219     0.09900
S747        S  0.57662957  0.25135991  0.25084436    -0.33500
S748        S  0.55928376  0.18110947  0.38883450    -0.33500
H749        H  0.54075104  0.16448910  0.37332946     0.27900
H750        H  0.57637769  0.27532926  0.26833454     0.27900
H751        H  0.56137774  0.19878463  0.25948458     0.18500
H752        H  0.57709818  0.23325236  0.37968547     0.18500
C753        C  0.59010094  0.98470627  0.39995104    -0.07300
C754        C  0.58321225  0.00848911  0.41445167    -0.18500
C755        C  0.58278590  0.03109451  0.39369450     0.09900
C756        C  0.58592667  0.03002384  0.35620559    -0.07300
C757        C  0.59317125  0.00630179  0.34167924    -0.18500
C758        C  0.59705794  0.98432323  0.36319321     0.09900
S759        S  0.57812678  0.06051996  0.41741882    -0.33500
S760        S  0.61101391  0.95673463  0.34126988    -0.33500
H761        H  0.63149004  0.95416226  0.36597681     0.27900
H762        H  0.60178073  0.07142605  0.40532069     0.27900
H763        H  0.57866262  0.00961008  0.44241558     0.18500
H764        H  0.59665854  0.00505272  0.31345920     0.18500
C765        C  0.46918150  0.12097099  0.28256256    -0.07300
C766        C  0.46573783  0.14726728  0.27392001    -0.18500
C767        C  0.44240592  0.16026857  0.28168940     0.09900
C768        C  0.42187746  0.14676189  0.29861271    -0.07300
C769        C  0.42441407  0.12003384  0.30455489    -0.18500
C770        C  0.44764019  0.10695758  0.29646286     0.09900
S771        S  0.43928576  0.19407584  0.26995195    -0.33500
S772        S  0.44818097  0.07256390  0.30450084    -0.33500
H773        H  0.46518612  0.06682897  0.27656154     0.27900
H774        H  0.46186326  0.19564379  0.24868021     0.27900
H775        H  0.48189013  0.15813725  0.26268493     0.18500
H776        H  0.40840160  0.10931995  0.31649467     0.18500
C777        C  0.23364270  0.18481532  0.21776012    -0.07300
C778        C  0.23913913  0.20786936  0.23601703    -0.18500
C779        C  0.25492791  0.20819925  0.26654161     0.09900
C780        C  0.26681200  0.18505074  0.27892682    -0.07300
C781        C  0.26148427  0.16208037  0.26003833    -0.18500
C782        C  0.24539002  0.16175730  0.22994834     0.09900
S783        S  0.25772991  0.23862743  0.28916906    -0.33500
S784        S  0.24079868  0.13120847  0.20790111    -0.33500
H785        H  0.23526563  0.14190221  0.17443199     0.27900
H786        H  0.25334958  0.22768025  0.32282817     0.27900
H787        H  0.22943101  0.22558893  0.22808094     0.18500
H788        H  0.27058349  0.14408113  0.26810558     0.18500
C789        C  0.41118503  0.32218827  0.31563828    -0.07300
C790        C  0.40457696  0.30990613  0.28372882    -0.18500
C791        C  0.39528737  0.28439735  0.28318072     0.09900
C792        C  0.39247258  0.27069808  0.31534053    -0.07300
C793        C  0.40014586  0.28277417  0.34709712    -0.18500
C794        C  0.40931964  0.30832240  0.34763893     0.09900
S795        S  0.38767759  0.27044485  0.24071310    -0.33500
S796        S  0.41781978  0.32212484  0.38990794    -0.33500
H797        H  0.43539751  0.34093240  0.37720732     0.27900
H798        H  0.39486170  0.24504976  0.25005562     0.27900
H799        H  0.40634959  0.32045660  0.25897852     0.18500
H800        H  0.39817193  0.27253872  0.37196856     0.18500
C801        C  0.36933953  0.11627905  0.48210723    -0.07300
C802        C  0.37227101  0.10119239  0.45146991    -0.18500
C803        C  0.36252748  0.10947890  0.41846469     0.09900
C804        C  0.34942202  0.13344751  0.41559992    -0.07300
C805        C  0.34400494  0.14707589  0.44692181    -0.18500
C806        C  0.35373803  0.13879075  0.47993333     0.09900
S807        S  0.37109812  0.09073459  0.38009794    -0.33500
S808        S  0.34549713  0.16108811  0.02149231    -0.33500
H809        H  0.34982591  0.14153763  0.04678093     0.27900
H810        H  0.35040144  0.09968815  0.35881538     0.27900
H811        H  0.38473384  0.08424070  0.45244944     0.18500
H812        H  0.33456015  0.16580761  0.44514398     0.18500
C813        C  0.48512558  0.07753291  0.45740428    -0.07300
C814        C  0.51006405  0.08833726  0.46389897    -0.18500
C815        C  0.52559461  0.09825275  0.43626473     0.09900
C816        C  0.51740020  0.09439310  0.40119719    -0.07300
C817        C  0.49230138  0.08385315  0.39489611    -0.18500
C818        C  0.47597038  0.07603134  0.42254869     0.09900
S819        S  0.55480355  0.11668508  0.44608592    -0.33500
S820        S  0.44366700  0.06355251  0.41311077    -0.33500
H821        H  0.44829947  0.05773808  0.88088185     0.27900
H822        H  0.55372057  0.11383839  0.48308092     0.27900
H823        H  0.51669790  0.09051269  0.49081665     0.18500
H824        H  0.48565656  0.08107842  0.36797645     0.18500
C825        C  0.51425377  0.08370208  0.19862887    -0.07300
C826        C  0.49002796  0.07194522  0.20611307    -0.18500
C827        C  0.46702422  0.07970369  0.18911929     0.09900
C828        C  0.46788873  0.09882605  0.16261222    -0.07300
C829        C  0.49185892  0.11104717  0.15534717    -0.18500
C830        C  0.51503536  0.10339896  0.17230262     0.09900
S831        S  0.43639254  0.06498900  0.20136584    -0.33500
S832        S  0.54494851  0.11859029  0.15740477    -0.33500
H833        H  0.56014263  0.09599150  0.16048398     0.27900
H834        H  0.44688043  0.04434608  0.22112854     0.27900
H835        H  0.48886376  0.05713990  0.22632618     0.18500
H836        H  0.49302972  0.12487096  0.13374283     0.18500
C837        C  0.40678191  0.02728100  0.10397444    -0.07300
C838        C  0.41290263  0.00324154  0.08933963    -0.18500
C839        C  0.41328896  0.98070815  0.11017132     0.09900
C840        C  0.41195977  0.98231573  0.14770508    -0.07300
C841        C  0.40372221  0.00587716  0.16216874    -0.18500
C842        C  0.39880066  0.02763197  0.14015018     0.09900
S843        S  0.41519491  0.95064298  0.08673592    -0.33500
S844        S  0.38094926  0.05474175  0.15813192    -0.33500
H845        H  0.37519777  0.04336953  0.19112518     0.27900
H846        H  0.39403276  0.93944485  0.10508186     0.27900
H847        H  0.41718328  0.00191233  0.06132377     0.18500
H848        H  0.40055028  0.00704993  0.19043336     0.18500
C849        C  0.50536623  0.93156082  0.28604938    -0.07300
C850        C  0.51936046  0.90792007  0.28823494    -0.18500
C851        C  0.54169064  0.90508240  0.30875300     0.09900
C852        C  0.54986338  0.92593758  0.32927471    -0.07300
C853        C  0.53893854  0.95069667  0.32253643    -0.18500
C854        C  0.51648614  0.95369351  0.30142123     0.09900
S855        S  0.55616179  0.87338336  0.31206656    -0.33500
S856        S  0.50166507  0.98523467  0.29863643    -0.33500
H857        H  0.47564727  0.97630879  0.29979769     0.27900
H858        H  0.58196953  0.88279335  0.31469790     0.27900
H859        H  0.51205469  0.89068081  0.27554403     0.18500
H860        H  0.54561708  0.96714548  0.33778133     0.18500
C861        C  0.51115177  0.91505731  0.03761300    -0.07300
C862        C  0.50558157  0.93901261  0.05273890    -0.18500
C863        C  0.48721693  0.94106677  0.07996007     0.09900
C864        C  0.47385970  0.91860043  0.09195424    -0.07300
C865        C  0.47801107  0.89503690  0.07529950    -0.18500
C866        C  0.49651862  0.89283412  0.04832426     0.09900
S867        S  0.48142841  0.97243686  0.09957120    -0.33500
S868        S  0.50046200  0.86139970  0.02803806    -0.33500
H869        H  0.48036172  0.84836138  0.04635092     0.27900
H870        H  0.49842926  0.98677151  0.07768749     0.27900
H871        H  0.51605557  0.95601899  0.04364084     0.18500
H872        H  0.46788201  0.87800728  0.08504823     0.18500
C873        C  0.57740835  0.66079944  0.44785127    -0.07300
C874        C  0.55538015  0.67643551  0.44051046    -0.18500
C875        C  0.52976054  0.66786500  0.44745804     0.09900
C876        C  0.52593449  0.64272180  0.46130395    -0.07300
C877        C  0.54799475  0.62800864  0.47084550    -0.18500
C878        C  0.57339251  0.63700388  0.46561285     0.09900
S879        S  0.50325726  0.68956946  0.43653254    -0.33500
S880        S  0.59939329  0.61697861  0.48277075    -0.33500
H881        H  0.61263633  0.63784978  0.49859229     0.27900
H882        H  0.48632036  0.67088070  0.42237289     0.27900
H883        H  0.55796568  0.69514753  0.42798940     0.18500
H884        H  0.54550563  0.60899210  0.48252441     0.18500
C885        C  0.60071362  0.82330928  0.41179047    -0.07300
C886        C  0.58574014  0.80227700  0.42443050    -0.18500
C887        C  0.59680171  0.77782447  0.42912810     0.09900
C888        C  0.62347531  0.77414720  0.42136571    -0.07300
C889        C  0.63825598  0.79462548  0.40738930    -0.18500
C890        C  0.62704296  0.81891804  0.40161695     0.09900
S891        S  0.57603993  0.75216788  0.44561409    -0.33500
S892        S  0.64705080  0.84286745  0.37968205    -0.33500
H893        H  0.62633315  0.85284483  0.35917448     0.27900
H894        H  0.59605226  0.73781191  0.46205214     0.27900
H895        H  0.56548427  0.80502163  0.43212557     0.18500
H896        H  0.65834743  0.79129025  0.39925712     0.18500
C897        C  0.73968208  0.67798551  0.46214878    -0.07300
C898        C  0.74473782  0.65552630  0.48242598    -0.18500
C899        C  0.75876221  0.65707672  0.01494136     0.09900
C900        C  0.76869707  0.68029453  0.02945072    -0.07300
C901        C  0.76231065  0.70366813  0.01243535    -0.18500
C902        C  0.75336554  0.70089878  0.47137694     0.09900
S903        S  0.76547631  0.62581858  0.03421724    -0.33500
S904        S  0.75281893  0.72995638  0.44496302    -0.33500
H905        H  0.75554076  0.71664321  0.41276845     0.27900
H906        H  0.76940408  0.63493988  0.06882841     0.27900
H907        H  0.73465585  0.63767314  0.47610748     0.18500
H908        H  0.77070213  0.72159465  0.02196361     0.18500
C909        C  0.90897445  0.18020216  0.19016553    -0.07300
C910        C  0.88171293  0.18307410  0.19236805    -0.18500
C911        C  0.86982401  0.20731921  0.19059039     0.09900
C912        C  0.88553486  0.22963675  0.18645028    -0.07300
C913        C  0.91283874  0.22694647  0.18336226    -0.18500
C914        C  0.92480092  0.20244639  0.18548397     0.09900
S915        S  0.83440147  0.20908615  0.19154613    -0.33500
S916        S  0.95990014  0.19977790  0.18033247    -0.33500
H917        H  0.96522183  0.22645142  0.17842861     0.27900
H918        H  0.82932047  0.18235667  0.19165473     0.27900
H919        H  0.86957359  0.16610860  0.19582510     0.18500
H920        H  0.92470027  0.24407366  0.17914057     0.18500
C921        C  0.02520842  0.12968097  0.20171580    -0.07300
C922        C  0.02723878  0.15669862  0.20239358    -0.18500
C923        C  0.05140169  0.16898973  0.19800212     0.09900
C924        C  0.07411629  0.15390163  0.19223698    -0.07300
C925        C  0.07211565  0.12682428  0.19309164    -0.18500
C926        C  0.04797134  0.11452720  0.19779862     0.09900
S927        S  0.05184779  0.20379669  0.20116708    -0.33500
S928        S  0.04675036  0.07957805  0.19992442    -0.33500
H929        H  0.07395739  0.07526337  0.19928898     0.27900
H930        H  0.07555563  0.20485959  0.22016222     0.27900
H931        H  0.00983292  0.16832427  0.20631847     0.18500
H932        H  0.08947900  0.11521017  0.18931133     0.18500
C933        C  0.90324850  0.82719171  0.06309228    -0.07300
C934        C  0.92070938  0.80611427  0.06332263    -0.18500
C935        C  0.91171019  0.78055037  0.06327093     0.09900
C936        C  0.88456098  0.77561758  0.06312999    -0.07300
C937        C  0.86704623  0.79646133  0.06312779    -0.18500
C938        C  0.87591584  0.82212418  0.06340381     0.09900
S939        S  0.93579143  0.75513116  0.06197763    -0.33500
S940        S  0.85321432  0.84915543  0.56439229    -0.33500
H941        H  0.83148176  0.83363803  0.55576113     0.27900
H942        H  0.92006989  0.73797267  0.04254477     0.27900
H943        H  0.94165046  0.80951709  0.06282115     0.18500
H944        H  0.84620382  0.79251055  0.06411862     0.18500
C945        C  0.92704998  0.98753652  0.09315350    -0.07300
C946        C  0.90302970  0.99464748  0.10882168    -0.18500
C947        C  0.90177165  0.01104617  0.13845380     0.09900
C948        C  0.92504110  0.02044721  0.15416630    -0.07300
C949        C  0.94902250  0.01348221  0.13862005    -0.18500
C950        C  0.95037227  0.99793367  0.10810362     0.09900
S951        S  0.86977226  0.01879471  0.15555567    -0.33500
S952        S  0.98233321  0.99165926  0.08950866    -0.33500
H953        H  0.99668342  0.00919017  0.11027775     0.27900
H954        H  0.87804149  0.02320202  0.19051551     0.27900
H955        H  0.88494505  0.98668915  0.09847431     0.18500
H956        H  0.96691726  0.02132923  0.14956490     0.18500
C957        C  0.08784389  0.32182999  0.19307602    -0.07300
C958        C  0.08353459  0.30877418  0.16133881    -0.18500
C959        C  0.09299691  0.28363272  0.15630622     0.09900
C960        C  0.10841581  0.27158002  0.18309283    -0.07300
C961        C  0.11178852  0.28459751  0.21538368    -0.18500
C962        C  0.10139003  0.30935420  0.22075181     0.09900
S963        S  0.08503984  0.26870218  0.11472234    -0.33500
S964        S  0.10571079  0.32502291  0.26292233    -0.33500
H965        H  0.12404451  0.30745133  0.27687150     0.27900
H966        H  0.07373184  0.24677446  0.13087742     0.27900
H967        H  0.07268787  0.31825221  0.14031781     0.18500
H968        H  0.12287223  0.27547471  0.23642301     0.18500
C969        C  0.97473555  0.37423169  0.19454650    -0.07300
C970        C  0.97130403  0.34814039  0.20421214    -0.18500
C971        C  0.94686496  0.33592535  0.20130738     0.09900
C972        C  0.92519481  0.34993094  0.18803120    -0.07300
C973        C  0.92858361  0.37594174  0.17835694    -0.18500
C974        C  0.95287595  0.38825576  0.18169530     0.09900
S975        S  0.94447917  0.30275137  0.21603882    -0.33500
S976        S  0.95416275  0.42215724  0.17056551    -0.33500
H977        H  0.96775247  0.42904842  0.20152261     0.27900
H978        H  0.91891769  0.30489895  0.22969365     0.27900
H979        H  0.98776846  0.33718187  0.21439472     0.18500
H980        H  0.91212110  0.38680877  0.16796401     0.18500
C981        C  0.08521537  0.52485124  0.10010512    -0.07300
C982        C  0.08586600  0.52932454  0.13704274    -0.18500
C983        C  0.08398331  0.50901111  0.16217209     0.09900
C984        C  0.08282389  0.48315202  0.15052959    -0.07300
C985        C  0.08509616  0.47872371  0.11378199    -0.18500
C986        C  0.08564577  0.49897957  0.08868194     0.09900
S987        S  0.08372987  0.51729875  0.20843123    -0.33500
S988        S  0.08762494  0.49061743  0.04255559    -0.33500
H989        H  0.10070975  0.51327286  0.03175353     0.27900
H990        H  0.09395945  0.49370412  0.22080553     0.27900
H991        H  0.08705470  0.54901762  0.14645823     0.18500
H992        H  0.08598050  0.45902348  0.10443361     0.18500
C993        C  0.97488905  0.62750760  0.05029806    -0.07300
C994        C  0.96900572  0.65011718  0.03086584    -0.18500
C995        C  0.94545315  0.66333309  0.03561821     0.09900
C996        C  0.92744098  0.65413939  0.06084053    -0.07300
C997        C  0.93300467  0.63170169  0.08024816    -0.18500
C998        C  0.95646521  0.61822953  0.07549221     0.09900
S999        S  0.94162449  0.69186398  0.50957016    -0.33500
S1000       S  0.96160034  0.58905753  0.10125544    -0.33500
H1001       H  0.94063755  0.59234117  0.12498174     0.27900
H1002       H  0.91436093  0.69320108  0.51408865     0.27900
H1003       H  0.98388873  0.65694190  0.51316257     0.18500
H1004       H  0.91871117  0.62471167  0.09923915     0.18500
C1005       C  0.36782453  0.39079086  0.23105741    -0.07300
C1006       C  0.35095983  0.36964646  0.23627707    -0.18500
C1007       C  0.33861362  0.35728161  0.20764381     0.09900
C1008       C  0.34333287  0.36583346  0.17244926    -0.07300
C1009       C  0.35678967  0.38938951  0.16792971    -0.18500
C1010       C  0.36962731  0.40147687  0.19655805     0.09900
S1011       S  0.31887918  0.32917308  0.21748827    -0.33500
S1012       S  0.39093561  0.42842589  0.18665806    -0.33500
H1013       H  0.39254583  0.43784116  0.22143708     0.27900
H1014       H  0.30395268  0.33046678  0.18621771     0.27900
H1015       H  0.34940368  0.36108001  0.26242829     0.18500
H1016       H  0.36010583  0.39675310  0.14142092     0.18500
C1017       C  0.34763017  0.28957360  0.46594314    -0.07300
C1018       C  0.32293555  0.28573096  0.45028511    -0.18500
C1019       C  0.31918338  0.26642144  0.42476848     0.09900
C1020       C  0.34061193  0.25076998  0.41493613    -0.07300
C1021       C  0.36557433  0.25626144  0.42863094    -0.18500
C1022       C  0.36937094  0.27589812  0.45305825     0.09900
S1023       S  0.28638740  0.26114485  0.40852699    -0.33500
S1024       S  0.39960615  0.28732587  0.96640546    -0.33500
H1025       H  0.39378395  0.31171046  0.98074474     0.27900
H1026       H  0.28913363  0.23437804  0.40323360     0.27900
H1027       H  0.30597385  0.29569429  0.46082277     0.18500
H1028       H  0.38243771  0.24515750  0.42016348     0.18500
C1029       C  0.33500965  0.19563063  0.20863665    -0.07300
C1030       C  0.31068964  0.20516227  0.19645459    -0.18500
C1031       C  0.30936316  0.22511509  0.17124021     0.09900
C1032       C  0.33286861  0.23535971  0.15762039    -0.07300
C1033       C  0.35649698  0.22237725  0.16504188    -0.18500
C1034       C  0.35778031  0.20251431  0.19006920     0.09900
S1035       S  0.27785534  0.23901572  0.16161635    -0.33500
S1036       S  0.38951627  0.18973670  0.20129097    -0.33500
H1037       H  0.38003365  0.16551840  0.21255069     0.27900
H1038       H  0.28116659  0.23758031  0.12474626     0.27900
H1039       H  0.29294044  0.19960660  0.21019802     0.18500
H1040       H  0.37444838  0.22882040  0.15270797     0.18500
C1041       C  0.40946981  0.24121240  0.07758910    -0.07300
C1042       C  0.40796464  0.23005399  0.04399377    -0.18500
C1043       C  0.41544230  0.20455296  0.03860867     0.09900
C1044       C  0.42429307  0.18966548  0.06757671    -0.07300
C1045       C  0.42842450  0.20152125  0.10039837    -0.18500
C1046       C  0.42182761  0.22756363  0.10535459     0.09900
S1047       S  0.40983789  0.19116894  0.99535459    -0.33500
S1048       S  0.42765205  0.24170498  0.14811609    -0.33500
H1049       H  0.43226561  0.26677002  0.13497060     0.27900
H1050       H  0.43547959  0.18162717  0.99209360     0.27900
H1051       H  0.39844341  0.24046935  0.02260209     0.18500
H1052       H  0.43611917  0.19032155  0.12235037     0.18500
C1053       C  0.23382453  0.31545700  0.46905403    -0.07300
C1054       C  0.23717566  0.29235076  0.48834433    -0.18500
C1055       C  0.25419286  0.29194014  0.01660793     0.09900
C1056       C  0.26820138  0.31370881  0.02944262    -0.07300
C1057       C  0.26319775  0.33782221  0.01324608    -0.18500
C1058       C  0.24834769  0.33740161  0.48002980     0.09900
S1059       S  0.25497711  0.26078491  0.03826660    -0.33500
S1060       S  0.24553107  0.36824539  0.45797433    -0.33500
H1061       H  0.23754527  0.35827192  0.42512995     0.27900
H1062       H  0.25848385  0.27088482  0.07247771     0.27900
H1063       H  0.22529104  0.27564505  0.48191995     0.18500
H1064       H  0.27385102  0.35475909  0.02200800     0.18500
C1065       C  0.12693981  0.39607887  0.27855291    -0.07300
C1066       C  0.14599968  0.37668729  0.27483232    -0.18500
C1067       C  0.15704216  0.36434836  0.30462697     0.09900
C1068       C  0.14946715  0.37185900  0.33909513    -0.07300
C1069       C  0.13317661  0.39356509  0.34263903    -0.18500
C1070       C  0.12189951  0.40565466  0.31289264     0.09900
S1071       S  0.17777010  0.33668797  0.29708858    -0.33500
S1072       S  0.09847421  0.43109991  0.32054314    -0.33500
H1073       H  0.09923955  0.44132574  0.28599645     0.27900
H1074       H  0.18942098  0.33649628  0.33081089     0.27900
H1075       H  0.14982538  0.36882054  0.24880689     0.18500
H1076       H  0.12685336  0.39936463  0.36880811     0.18500
C1077       C  0.16161662  0.25274600  0.08245223    -0.07300
C1078       C  0.17761367  0.27482663  0.08566067    -0.18500
C1079       C  0.17408133  0.29636776  0.06362555     0.09900
C1080       C  0.15356437  0.29649579  0.03874795    -0.07300
C1081       C  0.13582995  0.27589028  0.03838222    -0.18500
C1082       C  0.14053979  0.25344438  0.05787499     0.09900
S1083       S  0.19757574  0.32235835  0.06603831    -0.33500
S1084       S  0.11967814  0.22626755  0.04775262    -0.33500
H1085       H  0.14085520  0.20959495  0.04090746     0.27900
H1086       H  0.18263374  0.34028822  0.04654187     0.27900
H1087       H  0.19337675  0.27511415  0.10486503     0.18500
H1088       H  0.12036535  0.27404829  0.51373060     0.18500
C1089       C  0.15864961  0.24597065  0.33523420    -0.07300
C1090       C  0.17874660  0.22745383  0.33370858    -0.18500
C1091       C  0.17710762  0.20645238  0.31056243     0.09900
C1092       C  0.15540924  0.20411756  0.28781629    -0.07300
C1093       C  0.13398647  0.22041547  0.29248703    -0.18500
C1094       C  0.13515945  0.24124940  0.31590189     0.09900
S1095       S  0.20350222  0.18344310  0.31013757    -0.33500
S1096       S  0.10618351  0.26105878  0.32015338    -0.33500
H1097       H  0.08972365  0.24702472  0.29735016     0.27900
H1098       H  0.19091752  0.16512986  0.28856739     0.27900
H1099       H  0.19601174  0.22955488  0.35014319     0.18500
H1100       H  0.11735324  0.21844302  0.27487258     0.18500
C1101       C  0.99950170  0.92576195  0.20308588    -0.07300
C1102       C  0.99714271  0.90178582  0.18586287    -0.18500
C1103       C  0.97544343  0.89581894  0.16510505     0.09900
C1104       C  0.95599454  0.91457287  0.15940656    -0.07300
C1105       C  0.95717763  0.93784432  0.17852792    -0.18500
C1106       C  0.97867407  0.94365024  0.20026866     0.09900
S1107       S  0.97534432  0.86515804  0.14258342    -0.33500
S1108       S  0.97933779  0.97497147  0.22103363    -0.33500
H1109       H  0.00668627  0.97808550  0.21891383     0.27900
H1110       H  0.94797522  0.86369275  0.13885335     0.27900
H1111       H  0.01220875  0.88721102  0.18880963     0.18500
H1112       H  0.94278360  0.95279444  0.17330917     0.18500
C1113       C  0.04017116  0.90857452  0.40420341    -0.07300
C1114       C  0.01828823  0.89234793  0.40317640    -0.18500
C1115       C  0.99685993  0.89609170  0.42572285     0.09900
C1116       C  0.99788208  0.91602790  0.45169896    -0.07300
C1117       C  0.02082108  0.93108295  0.45407656    -0.18500
C1118       C  0.04168840  0.92770846  0.43052606     0.09900
S1119       S  0.96827575  0.87584593  0.41875847    -0.33500
S1120       S  0.06921241  0.94942973  0.43384997    -0.33500
H1121       H  0.08642834  0.93478167  0.41292001     0.27900
H1122       H  0.97869550  0.85972803  0.39239657     0.27900
H1123       H  0.01681403  0.87848728  0.38183786     0.18500
H1124       H  0.02250173  0.94585422  0.47419952     0.18500
C1125       C  0.15002660  0.12833091  0.09130138    -0.07300
C1126       C  0.15778653  0.13745388  0.05781829    -0.18500
C1127       C  0.14776447  0.12662674  0.02655201     0.09900
C1128       C  0.12926205  0.10628732  0.02841869    -0.07300
C1129       C  0.12396148  0.09520603  0.06168792    -0.18500
C1130       C  0.13427374  0.10582766  0.09296490     0.09900
S1131       S  0.15234193  0.14287831  0.48714829    -0.33500
S1132       S  0.12330450  0.09226656  0.13437436    -0.33500
H1133       H  0.14488194  0.10083188  0.15423774     0.27900
H1134       H  0.14881256  0.12052526  0.46664401     0.27900
H1135       H  0.16946643  0.15495060  0.05602758     0.18500
H1136       H  0.10943384  0.07994266  0.06368712     0.18500
C1137       C  0.11147324  0.22868535  0.43308263    -0.07300
C1138       C  0.12379573  0.20857596  0.41487000    -0.18500
C1139       C  0.11377264  0.18346309  0.41562408     0.09900
C1140       C  0.09158130  0.17783789  0.43686474    -0.07300
C1141       C  0.07882179  0.19838257  0.45419454    -0.18500
C1142       C  0.08819154  0.22376864  0.45182801     0.09900
S1143       S  0.12979485  0.16007746  0.38781253    -0.33500
S1144       S  0.06747392  0.24898103  0.97250280    -0.33500
H1145       H  0.07624968  0.26853355  0.44995481     0.27900
H1146       H  0.10618805  0.14923257  0.37552748     0.27900
H1147       H  0.14117104  0.21262329  0.39925049     0.18500
H1148       H  0.06156573  0.19469409  0.47015915     0.18500
C1149       C  0.07504707  0.01779129  0.40575994    -0.07300
C1150       C  0.05250235  0.01393679  0.38511921    -0.18500
C1151       C  0.05280661  0.99915620  0.35396671     0.09900
C1152       C  0.07576253  0.98527482  0.34437367    -0.07300
C1153       C  0.09830704  0.98879447  0.36555234    -0.18500
C1154       C  0.09833615  0.00521913  0.39529712     0.09900
S1155       S  0.02348969  0.99916470  0.32706579    -0.33500
S1156       S  0.12844616  0.00859094  0.41974115    -0.33500
H1157       H  0.11665887  0.01536541  0.45203433     0.27900
H1158       H  0.01146765  0.02086267  0.34243637     0.27900
H1159       H  0.03465587  0.02383925  0.39232423     0.18500
H1160       H  0.11602126  0.97822792  0.35932517     0.18500
C1161       C  0.96263748  0.09419628  0.09325017    -0.07300
C1162       C  0.96084017  0.07310056  0.07012611    -0.18500
C1163       C  0.98109926  0.06728048  0.04638103     0.09900
C1164       C  0.00405491  0.08278099  0.04578323    -0.07300
C1165       C  0.00503811  0.10463906  0.06793426    -0.18500
C1166       C  0.98457389  0.11058780  0.09113198     0.09900
S1167       S  0.98068051  0.03299620  0.52468477    -0.33500
S1168       S  0.98728546  0.13831203  0.11986574    -0.33500
H1169       H  0.01403178  0.14327728  0.11374242     0.27900
H1170       H  0.00803210  0.03009953  0.52722193     0.27900
H1171       H  0.94452586  0.05975980  0.07274010     0.18500
H1172       H  0.02173938  0.11753919  0.06675933     0.18500
C1173       C  0.04108973  0.09498273  0.34208942    -0.07300
C1174       C  0.01816023  0.10953965  0.34551834    -0.18500
C1175       C  0.99560061  0.10355846  0.32630621     0.09900
C1176       C  0.99658217  0.08450575  0.29931927    -0.07300
C1177       C  0.02056207  0.07159057  0.29372117    -0.18500
C1178       C  0.04251351  0.07636950  0.31507830     0.09900
S1179       S  0.96601979  0.11966032  0.34026835    -0.33500
S1180       S  0.07154567  0.05724598  0.30811910    -0.33500
H1181       H  0.08840171  0.07297254  0.32817757     0.27900
H1182       H  0.95085825  0.09688552  0.34013086     0.27900
H1183       H  0.01657867  0.12314039  0.36713994     0.18500
H1184       H  0.02227277  0.05748152  0.27275131     0.18500
C1185       C  0.52388064  0.12575969  0.05586259    -0.07300
C1186       C  0.52683740  0.15227206  0.04910100    -0.18500
C1187       C  0.55124355  0.16433606  0.05101127     0.09900
C1188       C  0.57366778  0.14972514  0.06051195    -0.07300
C1189       C  0.57096792  0.12294749  0.06597168    -0.18500
C1190       C  0.54633618  0.11088089  0.06398436     0.09900
S1191       S  0.55141547  0.19482079  0.53603179    -0.33500
S1192       S  0.54493677  0.07641903  0.07052128    -0.33500
H1193       H  0.52876301  0.07812227  0.10053944     0.27900
H1194       H  0.57674956  0.19472957  0.52167841     0.27900
H1195       H  0.50987229  0.15969763  0.53883469     0.18500
H1196       H  0.58793117  0.11150947  0.07318970     0.18500
C1197       C  0.65963870  0.19497675  0.45714499    -0.07300
C1198       C  0.68299119  0.20437132  0.44149122    -0.18500
C1199       C  0.68247660  0.22333941  0.41466317     0.09900
C1200       C  0.65818790  0.23267130  0.40251722    -0.07300
C1201       C  0.63518359  0.22041216  0.41462750    -0.18500
C1202       C  0.63568876  0.20149979  0.44117815     0.09900
S1203       S  0.71306170  0.23703970  0.40016284    -0.33500
S1204       S  0.60488227  0.18960628  0.45767274    -0.33500
H1205       H  0.61440763  0.16478198  0.46584078     0.27900
H1206       H  0.70451836  0.26286409  0.40185707     0.27900
H1207       H  0.70165286  0.19957165  0.45353007     0.18500
H1208       H  0.61640780  0.22668626  0.40474009     0.18500
C1209       C  0.64986554  0.26462323  0.15630372    -0.07300
C1210       C  0.67033474  0.28203695  0.16329238    -0.18500
C1211       C  0.66731841  0.30106396  0.18936647     0.09900
C1212       C  0.64403148  0.30176637  0.20941369    -0.07300
C1213       C  0.62219976  0.28853371  0.19702728    -0.18500
C1214       C  0.62483282  0.26949283  0.17140699     0.09900
S1215       S  0.69370931  0.32339780  0.19682317    -0.33500
S1216       S  0.59591578  0.25104092  0.16086762    -0.33500
H1217       H  0.57758023  0.26980019  0.17143098     0.27900
H1218       H  0.67784318  0.34291568  0.21121377     0.27900
H1219       H  0.68890300  0.28016361  0.14963673     0.18500
H1220       H  0.60387743  0.29043015  0.21120148     0.18500
C1221       C  0.62916191  0.12186710  0.23744800    -0.07300
C1222       C  0.62810979  0.10671115  0.20652961    -0.18500
C1223       C  0.63818710  0.11580895  0.17384613     0.09900
C1224       C  0.64972704  0.14058507  0.17168967    -0.07300
C1225       C  0.65361297  0.15425757  0.20346556    -0.18500
C1226       C  0.64373173  0.14510603  0.23606587     0.09900
S1227       S  0.63248523  0.09760144  0.13394977    -0.33500
S1228       S  0.64676874  0.16579890  0.27411956    -0.33500
H1229       H  0.64253103  0.14617198  0.29938244     0.27900
H1230       H  0.62219390  0.07540528  0.15056577     0.27900
H1231       H  0.61642978  0.08920429  0.20698028     0.18500
H1232       H  0.66208794  0.17348139  0.20233035     0.18500
C1233       C  0.92764353  0.15325312  0.43878861    -0.07300
C1234       C  0.94995097  0.16539053  0.42407050    -0.18500
C1235       C  0.97483746  0.15428462  0.42691824     0.09900
C1236       C  0.97740876  0.13031071  0.44395169    -0.07300
C1237       C  0.95563162  0.11823789  0.45915856    -0.18500
C1238       C  0.93078222  0.12954530  0.45739042     0.09900
S1239       S  0.00321210  0.17058269  0.40878025    -0.33500
S1240       S  0.90470318  0.11478494  0.98666927    -0.33500
H1241       H  0.91955552  0.09545154  0.00360714     0.27900
H1242       H  0.98982556  0.19211993  0.39491482     0.27900
H1243       H  0.94793341  0.18355775  0.41001890     0.18500
H1244       H  0.95864612  0.09979749  0.97738739     0.18500
C1245       C  0.85222970  0.12740235  0.34451325    -0.07300
C1246       C  0.84108361  0.13294675  0.31126987    -0.18500
C1247       C  0.85113285  0.12200070  0.27990670     0.09900
C1248       C  0.87333650  0.10567688  0.28138226    -0.07300
C1249       C  0.88231048  0.09781768  0.31487334    -0.18500
C1250       C  0.87205778  0.10834701  0.34613115     0.09900
S1251       S  0.83700889  0.13218237  0.23852866    -0.33500
S1252       S  0.88824683  0.09998633  0.38692132    -0.33500
H1253       H  0.86653482  0.10519375  0.40863502     0.27900
H1254       H  0.84510911  0.11038701  0.21935845     0.27900
H1255       H  0.82620336  0.14781713  0.30930207     0.18500
H1256       H  0.89953927  0.08562515  0.31661364     0.18500
C1257       C  0.83621240  0.24762918  0.08859812    -0.07300
C1258       C  0.86073250  0.24448266  0.07216802    -0.18500
C1259       C  0.86577011  0.22350903  0.05018679     0.09900
C1260       C  0.84557036  0.20588389  0.04269381    -0.07300
C1261       C  0.82205550  0.20730021  0.06198291    -0.18500
C1262       C  0.81713880  0.22797485  0.08488641     0.09900
S1263       S  0.89719255  0.22203740  0.02844157    -0.33500
S1264       S  0.78547685  0.22917737  0.10602826    -0.33500
H1265       H  0.78320947  0.25627807  0.10493728     0.27900
H1266       H  0.89614932  0.19534631  0.02156979     0.27900
H1267       H  0.87625789  0.25843830  0.07653133     0.18500
H1268       H  0.80620786  0.19406205  0.05581971     0.18500
C1269       C  0.83801476  0.25235826  0.33178472    -0.07300
C1270       C  0.82233517  0.27455104  0.33562997    -0.18500
C1271       C  0.82534138  0.29594458  0.31314478     0.09900
C1272       C  0.84541124  0.29606328  0.28752212    -0.07300
C1273       C  0.86273034  0.27517233  0.28615423    -0.18500
C1274       C  0.85804971  0.25268541  0.30565927     0.09900
S1275       S  0.80149968  0.32154874  0.31590097    -0.33500
S1276       S  0.87744709  0.22495515  0.29356635    -0.33500
H1277       H  0.85549363  0.20863966  0.28993715     0.27900
H1278       H  0.81556781  0.33952677  0.29526367     0.27900
H1279       H  0.80715915  0.27502468  0.35567329     0.18500
H1280       H  0.87745075  0.27464234  0.26543279     0.18500
C1281       C  0.76841363  0.18727394  0.47515839    -0.07300
C1282       C  0.76127674  0.16423187  0.49289036    -0.18500
C1283       C  0.74443414  0.16600660  0.02659484     0.09900
C1284       C  0.73287741  0.18953076  0.03766613    -0.07300
C1285       C  0.74039311  0.21225469  0.01973708    -0.18500
C1286       C  0.75737079  0.21070823  0.48814753     0.09900
S1287       S  0.73833886  0.13570542  0.04896415    -0.33500
S1288       S  0.76517119  0.24219453  0.47052965    -0.33500
H1289       H  0.76193451  0.23496238  0.43509213     0.27900
H1290       H  0.73344483  0.14680977  0.08224268     0.27900
H1291       H  0.76998890  0.14610293  0.48477450     0.18500
H1292       H  0.73148093  0.23046542  0.02709311     0.18500
C1293       C  0.62773079  0.38575776  0.47995219    -0.07300
C1294       C  0.62639780  0.39763365  0.44660149    -0.18500
C1295       C  0.63860487  0.38667698  0.41697191     0.09900
C1296       C  0.65074731  0.36209460  0.41998389    -0.07300
C1297       C  0.65507784  0.35217765  0.45426583    -0.18500
C1298       C  0.64437190  0.36418773  0.48423973     0.09900
S1299       S  0.63500732  0.40359585  0.37562194    -0.33500
S1300       S  0.64679378  0.34643982  0.02370064    -0.33500
H1301       H  0.64364000  0.36877702  0.04427637     0.27900
H1302       H  0.66094634  0.39881196  0.36484187     0.27900
H1303       H  0.61400035  0.41445459  0.44302884     0.18500
H1304       H  0.66503700  0.33381983  0.45751927     0.18500
C1305       C  0.46378255  0.41356038  0.41075503    -0.07300
C1306       C  0.48846269  0.40256232  0.40532890    -0.18500
C1307       C  0.51008788  0.40954694  0.42571446     0.09900
C1308       C  0.50664179  0.42582658  0.45542551    -0.07300
C1309       C  0.48153434  0.43628123  0.46166600    -0.18500
C1310       C  0.46042070  0.43104526  0.43880496     0.09900
S1311       S  0.54194955  0.39895864  0.41064799    -0.33500
S1312       S  0.42944690  0.44727548  0.44457914    -0.33500
H1313       H  0.43822017  0.46509689  0.47000342     0.27900
H1314       H  0.53298828  0.37516111  0.39753953     0.27900
H1315       H  0.49159072  0.39063025  0.38238394     0.18500
H1316       H  0.47838297  0.44847472  0.48446795     0.18500
C1317       C  0.53245524  0.40569991  0.16068984    -0.07300
C1318       C  0.53291784  0.42882095  0.18015911    -0.18500
C1319       C  0.51247620  0.43563635  0.20283913     0.09900
C1320       C  0.49089402  0.41877118  0.20673316    -0.07300
C1321       C  0.49129921  0.39489876  0.18882466    -0.18500
C1322       C  0.51201272  0.38804999  0.16673381     0.09900
S1323       S  0.51436890  0.46687415  0.22376811    -0.33500
S1324       S  0.51036669  0.35732444  0.14486252    -0.33500
H1325       H  0.53753800  0.35307427  0.14667426     0.27900
H1326       H  0.48739942  0.47212267  0.22090091     0.27900
H1327       H  0.54800576  0.44297684  0.17501018     0.18500
H1328       H  0.47564586  0.38098198  0.19260436     0.18500
C1329       C  0.59748520  0.26663712  0.04943544    -0.07300
C1330       C  0.57690946  0.27257232  0.07296827    -0.18500
C1331       C  0.56481370  0.29672198  0.07253170     0.09900
C1332       C  0.57305022  0.31523731  0.04770767    -0.07300
C1333       C  0.59076251  0.30823950  0.02109741    -0.18500
C1334       C  0.60285599  0.28402178  0.02132234     0.09900
S1335       S  0.54041022  0.30322925  0.10562322    -0.33500
S1336       S  0.62849381  0.27756528  0.48496990    -0.33500
H1337       H  0.61759477  0.25098634  0.98293360     0.27900
H1338       H  0.52637038  0.32126200  0.08517517     0.27900
H1339       H  0.57113845  0.25894259  0.09333027     0.18500
H1340       H  0.59595881  0.32215679  0.00072161     0.18500
C1341       C  0.46849066  0.37825974  0.05092130    -0.07300
C1342       C  0.45937280  0.37893323  0.08593848    -0.18500
C1343       C  0.43535898  0.36817078  0.09559295     0.09900
C1344       C  0.41919317  0.35680552  0.06952031    -0.07300
C1345       C  0.42792743  0.35661490  0.03424328    -0.18500
C1346       C  0.45246010  0.36686930  0.02464973     0.09900
S1347       S  0.42657585  0.37023574  0.14161737    -0.33500
S1348       S  0.46583499  0.36522044  0.47951245    -0.33500
H1349       H  0.44353481  0.35308434  0.46528328     0.27900
H1350       H  0.40064064  0.37679465  0.13388984     0.27900
H1351       H  0.47118268  0.38784244  0.10634360     0.18500
H1352       H  0.41578217  0.34765574  0.01426745     0.18500
C1353       C  0.63060750  0.60553180  0.27466199    -0.07300
C1354       C  0.62139780  0.59638539  0.30749750    -0.18500
C1355       C  0.63031724  0.60684105  0.33958357     0.09900
C1356       C  0.64939714  0.62667403  0.33936442    -0.07300
C1357       C  0.66058446  0.63390395  0.30676028    -0.18500
C1358       C  0.65140359  0.62364235  0.27457398     0.09900
S1359       S  0.61347162  0.59717379  0.37947715    -0.33500
S1360       S  0.66424071  0.63731965  0.23420123    -0.33500
H1361       H  0.65712984  0.61652861  0.21238512     0.27900
H1362       H  0.63393133  0.60363587  0.40272286     0.27900
H1363       H  0.60490479  0.58313514  0.30806465     0.18500
H1364       H  0.67463530  0.64964709  0.30603511     0.18500
C1365       C  0.51084680  0.58324484  0.29124269    -0.07300
C1366       C  0.51729344  0.60212887  0.31643924    -0.18500
C1367       C  0.49906873  0.61094206  0.34078395     0.09900
C1368       C  0.47440248  0.59890055  0.34311960    -0.07300
C1369       C  0.46688815  0.58132181  0.31691069    -0.18500
C1370       C  0.48450968  0.57419401  0.28993225     0.09900
S1371       S  0.50801588  0.63670367  0.37054659    -0.33500
S1372       S  0.47257229  0.55446870  0.25402510    -0.33500
H1373       H  0.44586080  0.55561202  0.26312878     0.27900
H1374       H  0.53269267  0.64243398  0.35585759     0.27900
H1375       H  0.53667293  0.61063640  0.31681593     0.18500
H1376       H  0.44780764  0.57220577  0.31864914     0.18500
C1377       C  0.54895475  0.57950045  0.08267820    -0.07300
C1378       C  0.53686414  0.55599410  0.07242838    -0.18500
C1379       C  0.51457993  0.55571841  0.05089662     0.09900
C1380       C  0.50453046  0.57939752  0.03879307    -0.07300
C1381       C  0.51927896  0.60221322  0.04458904    -0.18500
C1382       C  0.54169461  0.60234405  0.06539693     0.09900
S1383       S  0.49864988  0.52514426  0.04310178    -0.33500
S1384       S  0.55807838  0.63278519  0.07238195    -0.33500
H1385       H  0.58325501  0.62174403  0.07345921     0.27900
H1386       H  0.47306885  0.53469740  0.04751521     0.27900
H1387       H  0.54243153  0.53806720  0.08520744     0.18500
H1388       H  0.51305074  0.62053245  0.03344426     0.18500
C1389       C  0.58634346  0.51423134  0.15238158    -0.07300
C1390       C  0.58769330  0.51923590  0.11556309    -0.18500
C1391       C  0.58634282  0.49949293  0.09028438     0.09900
C1392       C  0.58508270  0.47362413  0.10158172    -0.07300
C1393       C  0.58680336  0.46844097  0.13835417    -0.18500
C1394       C  0.58672074  0.48831139  0.16376576     0.09900
S1395       S  0.58639671  0.50858570  0.04418729    -0.33500
S1396       S  0.58752498  0.47935337  0.20989008    -0.33500
H1397       H  0.59863612  0.50254051  0.22212802     0.27900
H1398       H  0.59840411  0.48581851  0.03206390     0.27900
H1399       H  0.58884754  0.53895356  0.10606205     0.18500
H1400       H  0.58713895  0.44858510  0.14754893     0.18500
C1401       C  0.85333438  0.63202886  0.16171357    -0.07300
C1402       C  0.86810415  0.60917393  0.15955326    -0.18500
C1403       C  0.87779202  0.59688585  0.19023704     0.09900
C1404       C  0.87265562  0.60748798  0.22399121    -0.07300
C1405       C  0.85524856  0.62843883  0.22612410    -0.18500
C1406       C  0.84587483  0.64097989  0.19548159     0.09900
S1407       S  0.89982621  0.56999913  0.18453399    -0.33500
S1408       S  0.82705457  0.67038337  0.19957444    -0.33500
H1409       H  0.82550900  0.67041141  0.23673936     0.27900
H1410       H  0.89735518  0.56036193  0.21923290     0.27900
H1411       H  0.87441744  0.60237155  0.13385018     0.18500
H1412       H  0.85169581  0.63701182  0.25170527     0.18500
C1413       C  0.99345282  0.58716757  0.20156974    -0.07300
C1414       C  0.99518902  0.61067980  0.18264152    -0.18500
C1415       C  0.01649558  0.61613341  0.16062090     0.09900
C1416       C  0.03656861  0.59773506  0.15695637    -0.07300
C1417       C  0.03549222  0.57497094  0.17735856    -0.18500
C1418       C  0.01394820  0.56908468  0.19852681     0.09900
S1419       S  0.01589841  0.64577662  0.13539020    -0.33500
S1420       S  0.01294144  0.53732819  0.21855184    -0.33500
H1421       H  0.98553960  0.53466141  0.21621526     0.27900
H1422       H  0.04313265  0.64969234  0.13708945     0.27900
H1423       H  0.98011871  0.62526722  0.18547706     0.18500
H1424       H  0.05008270  0.56018495  0.17365431     0.18500
C1425       C  0.96052383  0.58768708  0.41190710    -0.07300
C1426       C  0.96331151  0.56361708  0.42917941    -0.18500
C1427       C  0.98458088  0.55856203  0.45180126     0.09900
C1428       C  0.00368370  0.57794530  0.45720924    -0.07300
C1429       C  0.99991069  0.60234113  0.44118415    -0.18500
C1430       C  0.97838288  0.60754034  0.41965021     0.09900
S1431       S  0.98741345  0.52644130  0.47016038    -0.33500
S1432       S  0.97655161  0.63899617  0.39895088    -0.33500
H1433       H  0.94904600  0.63939346  0.39686616     0.27900
H1434       H  0.01496641  0.52610015  0.47101568     0.27900
H1435       H  0.95029546  0.54784497  0.42219657     0.18500
H1436       H  0.01375614  0.61786263  0.44552387     0.18500
C1437       C  0.87083129  0.39905979  0.03148472    -0.07300
C1438       C  0.85163386  0.37975952  0.02764999    -0.18500
C1439       C  0.84069797  0.36719320  0.05736028     0.09900
C1440       C  0.84867266  0.37419707  0.09187360    -0.07300
C1441       C  0.86495793  0.39595587  0.09563268    -0.18500
C1442       C  0.87591366  0.40846699  0.06591015     0.09900
S1443       S  0.81929488  0.34002586  0.04962285    -0.33500
S1444       S  0.89892311  0.43435019  0.07351199    -0.33500
H1445       H  0.89761132  0.44469958  0.03905210     0.27900
H1446       H  0.80777120  0.33993639  0.08344363     0.27900
H1447       H  0.84756918  0.37216213  0.00153835     0.18500
H1448       H  0.87144320  0.40153816  0.12181711     0.18500
C1449       C  0.99812185  0.42087277  0.04342731    -0.07300
C1450       C  0.99792030  0.39791801  0.06374027    -0.18500
C1451       C  0.01918052  0.39086570  0.08495776     0.09900
C1452       C  0.04101528  0.40739314  0.08737237    -0.07300
C1453       C  0.04232350  0.42892102  0.06460119    -0.18500
C1454       C  0.02107876  0.43615471  0.04333569     0.09900
S1455       S  0.01634612  0.36178437  0.11120168    -0.33500
S1456       S  0.02374308  0.46617419  0.01912306    -0.33500
H1457       H  0.99751122  0.47351498  0.02458779     0.27900
H1458       H  0.04347155  0.35755883  0.11406587     0.27900
H1459       H  0.98115676  0.38504609  0.06294324     0.18500
H1460       H  0.05892146  0.44183306  0.06609881     0.18500
C1461       C  0.95949346  0.41070618  0.33934081    -0.07300
C1462       C  0.95937202  0.43337992  0.31848879    -0.18500
C1463       C  0.97960032  0.43886819  0.29427903     0.09900
C1464       C  0.00084809  0.42150421  0.29100311    -0.07300
C1465       C  0.99987869  0.39812450  0.31039127    -0.18500
C1466       C  0.97939257  0.39240998  0.33370260     0.09900
S1467       S  0.97798262  0.46906223  0.27040772    -0.33500
S1468       S  0.98133093  0.36270127  0.35874829    -0.33500
H1469       H  0.95407492  0.35916222  0.36115398     0.27900
H1470       H  0.00501997  0.47419465  0.27258246     0.27900
H1471       H  0.94465223  0.44802694  0.32344937     0.18500
H1472       H  0.01524796  0.38388220  0.30743763     0.18500
C1473       C  0.91397754  0.32201163  0.44317030    -0.07300
C1474       C  0.91501034  0.31117596  0.40941681    -0.18500
C1475       C  0.90569614  0.28604112  0.40332848     0.09900
C1476       C  0.89397081  0.27198077  0.43155851    -0.07300
C1477       C  0.89446220  0.28248383  0.46570955    -0.18500
C1478       C  0.90462196  0.30708405  0.47183584     0.09900
S1479       S  0.90799449  0.27312202  0.35912909    -0.33500
S1480       S  0.90378583  0.31893731  0.51647920    -0.33500
H1481       H  0.89079051  0.34159942  0.50637676     0.27900
H1482       H  0.92368370  0.29289420  0.34461637     0.27900
H1483       H  0.92279829  0.32263468  0.38778229     0.18500
H1484       H  0.88604298  0.27182855  0.48769549     0.18500
C1485       C  0.92415833  0.48246637  0.40379669    -0.07300
C1486       C  0.94849256  0.49020175  0.38986730    -0.18500
C1487       C  0.95057576  0.50642667  0.36005129     0.09900
C1488       C  0.92762067  0.51684987  0.34429327    -0.07300
C1489       C  0.90318829  0.50915844  0.35841154    -0.18500
C1490       C  0.90122103  0.49195164  0.38732369     0.09900
S1491       S  0.98301569  0.51382133  0.34368667    -0.33500
S1492       S  0.86886828  0.48355741  0.40275215    -0.33500
H1493       H  0.87629848  0.47840049  0.43791670     0.27900
H1494       H  0.99704647  0.49623622  0.36490748     0.27900
H1495       H  0.96620209  0.48254374  0.40158527     0.18500
H1496       H  0.88537374  0.51732417  0.34749254     0.18500
C1497       C  0.02565180  0.37444520  0.44675927    -0.07300
C1498       C  0.03331842  0.35390782  0.46912208    -0.18500
C1499       C  0.05785904  0.34209938  0.46562282     0.09900
C1500       C  0.07524457  0.35104341  0.43951631    -0.07300
C1501       C  0.06810534  0.37161671  0.41751262    -0.18500
C1502       C  0.04351167  0.38334751  0.42042799     0.09900
S1503       S  0.06745276  0.31651459  0.49556585    -0.33500
S1504       S  0.03512536  0.40999838  0.89204071    -0.33500
H1505       H  0.05490842  0.40419705  0.86740659     0.27900
H1506       H  0.04281521  0.31313106  0.51165420     0.27900
H1507       H  0.02014689  0.34712231  0.48961151     0.18500
H1508       H  0.08038065  0.37820603  0.90081058     0.18500
C1509       C  0.02566911  0.63219805  0.29712772    -0.07300
C1510       C  0.02818891  0.65898028  0.29192720    -0.18500
C1511       C  0.05274437  0.67103094  0.29235395     0.09900
C1512       C  0.07543642  0.65618621  0.29950498    -0.07300
C1513       C  0.07309883  0.62918641  0.30200103    -0.18500
C1514       C  0.04856274  0.61699479  0.30039984     0.09900
S1515       S  0.05375728  0.70521122  0.28246701    -0.33500
S1516       S  0.04704146  0.58205240  0.30111858    -0.33500
H1517       H  0.07400384  0.57767906  0.29620065     0.27900
H1518       H  0.07822659  0.70451699  0.26533090     0.27900
H1519       H  0.01086960  0.67064519  0.28740087     0.18500
H1520       H  0.09046157  0.61762917  0.30627366     0.18500
C1521       C  0.12746518  0.61339415  0.46926870    -0.07300
C1522       C  0.12301057  0.60200925  0.43604418    -0.18500
C1523       C  0.13385316  0.61241077  0.40474560     0.09900
C1524       C  0.14889160  0.63539387  0.40598503    -0.07300
C1525       C  0.15541191  0.64528068  0.43951494    -0.18500
C1526       C  0.14540028  0.63425306  0.47096592     0.09900
S1527       S  0.12479926  0.59754450  0.36351901    -0.33500
S1528       S  0.15326697  0.65086307  0.01540813    -0.33500
H1529       H  0.14935499  0.62912590  0.03721859     0.27900
H1530       H  0.14711803  0.60582481  0.34483457     0.27900
H1531       H  0.10907453  0.58624042  0.43404285     0.18500
H1532       H  0.16655318  0.66310038  0.44110872     0.18500
C1533       C  0.10764420  0.77527750  0.30459966    -0.07300
C1534       C  0.09776191  0.78802209  0.33466891    -0.18500
C1535       C  0.08712997  0.81288674  0.33231852     0.09900
C1536       C  0.08645297  0.82549730  0.29928280    -0.07300
C1537       C  0.09512196  0.81249779  0.26897338    -0.18500
C1538       C  0.10548474  0.78749004  0.27116892     0.09900
S1539       S  0.07528329  0.82770724  0.37238731    -0.33500
S1540       S  0.11540780  0.77232989  0.23042978    -0.33500
H1541       H  0.10757026  0.74730121  0.24073863     0.27900
H1542       H  0.05622888  0.84338828  0.35613505     0.27900
H1543       H  0.09915572  0.77896429  0.36051598     0.18500
H1544       H  0.09425233  0.82212509  0.24345174     0.18500
C1545       C  0.35367941  0.63302291  0.09032332    -0.07300
C1546       C  0.36808251  0.61005996  0.09348007    -0.18500
C1547       C  0.37891226  0.59803495  0.06348463     0.09900
C1548       C  0.37539433  0.60920152  0.02952190    -0.07300
C1549       C  0.35749660  0.62968000  0.02600951    -0.18500
C1550       C  0.34673038  0.64171613  0.05605445     0.09900
S1551       S  0.39993765  0.57020131  0.06903766    -0.33500
S1552       S  0.32693121  0.67017848  0.04940869    -0.33500
H1553       H  0.31525316  0.66978334  0.08313569     0.27900
H1554       H  0.39714025  0.56787146  0.10593941     0.27900
H1555       H  0.37345943  0.60331678  0.11965531     0.18500
H1556       H  0.35443005  0.63842896  0.00023805     0.18500
C1557       C  0.43069799  0.64768965  0.18682675    -0.07300
C1558       C  0.44766416  0.64718517  0.15749400    -0.18500
C1559       C  0.47212395  0.63501912  0.15919407     0.09900
C1560       C  0.48001187  0.62312714  0.19108472    -0.07300
C1561       C  0.46311601  0.62367804  0.22044732    -0.18500
C1562       C  0.43837370  0.63545266  0.21849040     0.09900
S1563       S  0.49249347  0.63633437  0.12018031    -0.33500
S1564       S  0.41731659  0.63563259  0.25678154    -0.33500
H1565       H  0.43533432  0.62459868  0.28060543     0.27900
H1566       H  0.51683614  0.63414677  0.13722787     0.27900
H1567       H  0.44186010  0.65658770  0.13303240     0.18500
H1568       H  0.46941966  0.61488934  0.24499827     0.18500
C1569       C  0.27207581  0.69221545  0.21734962    -0.07300
C1570       C  0.26323919  0.66859839  0.23197949    -0.18500
C1571       C  0.24571911  0.66744587  0.26068353     0.09900
C1572       C  0.23518086  0.69039934  0.27518358    -0.07300
C1573       C  0.24356209  0.71408228  0.26041104    -0.18500
C1574       C  0.26168342  0.71534458  0.23217954     0.09900
S1575       S  0.23857874  0.63583961  0.27862091    -0.33500
S1576       S  0.27215575  0.74729777  0.21920986    -0.33500
H1577       H  0.27108791  0.74249852  0.18274558     0.27900
H1578       H  0.23554480  0.64437317  0.31369083     0.27900
H1579       H  0.27124369  0.65058426  0.22222440     0.18500
H1580       H  0.23540064  0.73197066  0.27034587     0.18500
C1581       C  0.40426560  0.77085879  0.18836246    -0.07300
C1582       C  0.41420674  0.78388987  0.15844585    -0.18500
C1583       C  0.42267932  0.80961585  0.16035084     0.09900
C1584       C  0.42039322  0.82301814  0.19266515    -0.07300
C1585       C  0.41261685  0.80916968  0.22314165    -0.18500
C1586       C  0.40505007  0.78327660  0.22147572     0.09900
S1587       S  0.43614379  0.82402473  0.12080154    -0.33500
S1588       S  0.39630134  0.76737064  0.26247888    -0.33500
H1589       H  0.40419639  0.74253815  0.25174405     0.27900
H1590       H  0.45627439  0.83733065  0.13858958     0.27900
H1591       H  0.41432968  0.77440622  0.13298561     0.18500
H1592       H  0.41174697  0.81871064  0.24858944     0.18500
C1593       C  0.07433467  0.85369658  0.05611983    -0.07300
C1594       C  0.05274022  0.83690841  0.05796359    -0.18500
C1595       C  0.02714377  0.84621312  0.05538693     0.09900
C1596       C  0.02300014  0.87303369  0.05148060    -0.07300
C1597       C  0.04465400  0.88979339  0.04895900    -0.18500
C1598       C  0.07035092  0.88033072  0.05082434     0.09900
S1599       S  0.00087074  0.82292913  0.05841452    -0.33500
S1600       S  0.10014454  0.90135737  0.56040667    -0.33500
H1601       H  0.08590051  0.92428287  0.55477940     0.27900
H1602       H  0.98263897  0.83954300  0.07421227     0.27900
H1603       H  0.05588378  0.81638313  0.06218992     0.18500
H1604       H  0.04395172  0.90998976  0.55364418     0.18500
C1605       C  0.14925020  0.87165584  0.15650153    -0.07300
C1606       C  0.13285173  0.89304250  0.15038094    -0.18500
C1607       C  0.12105532  0.90635476  0.17869718     0.09900
C1608       C  0.12617303  0.89868058  0.21397328    -0.07300
C1609       C  0.14546759  0.87982982  0.21999821    -0.18500
C1610       C  0.15701889  0.86632233  0.19174959     0.09900
S1611       S  0.09679986  0.93094709  0.16975529    -0.33500
S1612       S  0.17978092  0.84082146  0.20239467    -0.33500
H1613       H  0.19204411  0.84051038  0.16904369     0.27900
H1614       H  0.09989946  0.93140460  0.13276730     0.27900
H1615       H  0.12675520  0.89731284  0.12355016     0.18500
H1616       H  0.14943993  0.87354331  0.24685985     0.18500
C1617       C  0.16443130  0.70158234  0.20184182    -0.07300
C1618       C  0.18848422  0.71112864  0.18861103    -0.18500
C1619       C  0.18913858  0.73141021  0.16387314     0.09900
C1620       C  0.16537132  0.74145134  0.15114190    -0.07300
C1621       C  0.14186866  0.72836490  0.15952555    -0.18500
C1622       C  0.14122917  0.70832888  0.18428250     0.09900
S1623       S  0.22030588  0.74543430  0.15267177    -0.33500
S1624       S  0.10984631  0.69492597  0.19631732    -0.33500
H1625       H  0.11983499  0.67042544  0.20529979     0.27900
H1626       H  0.21194349  0.77115965  0.15686752     0.27900
H1627       H  0.20658106  0.70556619  0.20153391     0.18500
H1628       H  0.12354972  0.73460413  0.14793152     0.18500
C1629       C  0.15130518  0.79535176  0.45997312    -0.07300
C1630       C  0.17425827  0.79645558  0.43957203    -0.18500
C1631       C  0.17835708  0.77874422  0.41212075     0.09900
C1632       C  0.15956729  0.75911897  0.40624328    -0.07300
C1633       C  0.13529993  0.76054432  0.42375286    -0.18500
C1634       C  0.13070061  0.77909180  0.44946190     0.09900
S1635       S  0.20818230  0.78138396  0.38695388    -0.33500
S1636       S  0.09913778  0.77944551  0.47106013    -0.33500
H1637       H  0.10058149  0.80278650  0.98282974     0.27900
H1638       H  0.21290249  0.75459769  0.38587237     0.27900
H1639       H  0.19010559  0.80920745  0.44735905     0.18500
H1640       H  0.11970601  0.74706580  0.41746007     0.18500
C1641       C  0.09472212  0.73755679  0.06284041    -0.07300
C1642       C  0.10015383  0.72462354  0.03110571    -0.18500
C1643       C  0.09125831  0.69954093  0.02508853     0.09900
C1644       C  0.07813817  0.68606432  0.05233818    -0.07300
C1645       C  0.07111264  0.69934277  0.08325587    -0.18500
C1646       C  0.07856204  0.72529006  0.08824483     0.09900
S1647       S  0.09808355  0.68477728  0.48256465    -0.33500
S1648       S  0.06870192  0.74099492  0.12846953    -0.33500
H1649       H  0.06279451  0.76464361  0.11179332     0.27900
H1650       H  0.07385573  0.67412076  0.97848360     0.27900
H1651       H  0.11266945  0.73366813  0.01146104     0.18500
H1652       H  0.06022415  0.68936018  0.10379453     0.18500
C1653       C  0.42722315  0.85697689  0.42250173    -0.07300
C1654       C  0.44749759  0.84915001  0.39945339    -0.18500
C1655       C  0.47270744  0.85975463  0.40120607     0.09900
C1656       C  0.47845197  0.87852946  0.42688023    -0.07300
C1657       C  0.45835949  0.88699953  0.44944014    -0.18500
C1658       C  0.43285786  0.87669991  0.44736803     0.09900
S1659       S  0.49821947  0.84747931  0.87056028    -0.33500
S1660       S  0.40874506  0.88969186  0.47716768    -0.33500
H1661       H  0.38915413  0.89196071  0.45123308     0.27900
H1662       H  0.51293573  0.87049366  0.86901198     0.27900
H1663       H  0.44387491  0.83434599  0.37984815     0.18500
H1664       H  0.46272623  0.90138675  0.46938000     0.18500
C1665       C  0.37312171  0.89531869  0.27168626    -0.07300
C1666       C  0.37466549  0.90580403  0.30590783    -0.18500
C1667       C  0.36366169  0.89307076  0.33539342     0.09900
C1668       C  0.35032038  0.86926569  0.33061664    -0.07300
C1669       C  0.34529389  0.86111947  0.29574152    -0.18500
C1670       C  0.35623139  0.87395750  0.26638443     0.09900
S1671       S  0.37051548  0.90559061  0.37899889    -0.33500
S1672       S  0.35115546  0.85968240  0.22356892    -0.33500
H1673       H  0.34751025  0.88363105  0.20645433     0.27900
H1674       H  0.38299925  0.92858961  0.36824691     0.27900
H1675       H  0.38725910  0.92239194  0.31007656     0.18500
H1676       H  0.33469650  0.84322126  0.29142400     0.18500
C1677       C  0.33390419  0.73809801  0.34405055    -0.07300
C1678       C  0.35705664  0.72347680  0.34055242    -0.18500
C1679       C  0.35950221  0.70437898  0.31484060     0.09900
C1680       C  0.33849580  0.69999093  0.29184843    -0.07300
C1681       C  0.31380997  0.71059811  0.30045930    -0.18500
C1682       C  0.31133114  0.72999468  0.32600503     0.09900
S1683       S  0.39071915  0.68897484  0.30907875    -0.33500
S1684       S  0.28033486  0.74619026  0.33038897    -0.33500
H1685       H  0.28097920  0.74625934  0.36755533     0.27900
H1686       H  0.37947109  0.66548359  0.29818111     0.27900
H1687       H  0.37408149  0.72837422  0.35618821     0.18500
H1688       H  0.29717200  0.70644433  0.28370720     0.18500
C1689       C  0.35414112  0.79572771  0.03184612    -0.07300
C1690       C  0.37592626  0.78039243  0.03944996    -0.18500
C1691       C  0.37484450  0.76117215  0.06542987     0.09900
C1692       C  0.35151363  0.75787005  0.08551271    -0.07300
C1693       C  0.33106668  0.77569132  0.08110654    -0.18500
C1694       C  0.33215798  0.79454157  0.05441850     0.09900
S1695       S  0.40348863  0.74107447  0.07145779    -0.33500
S1696       S  0.30392074  0.81474596  0.04819603    -0.33500
H1697       H  0.31782500  0.83562905  0.03337792     0.27900
H1698       H  0.41888787  0.75145545  0.04397520     0.27900
H1699       H  0.39269563  0.78078584  0.52485116     0.18500
H1700       H  0.31367409  0.77420161  0.09746243     0.18500
C1701       C  0.26998326  0.81778683  0.46789516    -0.07300
C1702       C  0.26419292  0.83977552  0.48858127    -0.18500
C1703       C  0.24552247  0.84170814  0.01325878     0.09900
C1704       C  0.22927281  0.81959486  0.01733411    -0.07300
C1705       C  0.23328065  0.79899756  0.99356966    -0.18500
C1706       C  0.25434218  0.79542673  0.47345243     0.09900
S1707       S  0.24343394  0.86887234  0.04267388    -0.33500
S1708       S  0.25707285  0.76644587  0.44715716    -0.33500
H1709       H  0.26405552  0.77954396  0.41580774     0.27900
H1710       H  0.23804482  0.85382169  0.07293091     0.27900
H1711       H  0.27609931  0.85700331  0.48547890     0.18500
H1712       H  0.22067052  0.78212740  0.99452388     0.18500
C1713       C  0.40683697  0.73769062  0.42573141    -0.07300
C1714       C  0.40149143  0.72629291  0.45861682    -0.18500
C1715       C  0.40504154  0.69991456  0.46437317     0.09900
C1716       C  0.41613276  0.68450346  0.43735337    -0.07300
C1717       C  0.42388720  0.69637688  0.40544977    -0.18500
C1718       C  0.41958411  0.72292897  0.39954731     0.09900
S1719       S  0.39281185  0.68613689  0.50531617    -0.33500
S1720       S  0.42960436  0.73667066  0.35781678    -0.33500
H1721       H  0.43532722  0.76124533  0.37156767     0.27900
H1722       H  0.37628235  0.70675568  0.51468422     0.27900
H1723       H  0.39175391  0.73770779  0.47869549     0.18500
H1724       H  0.43334984  0.68497730  0.38514031     0.18500
C1725       C  0.57313012  0.84862434  0.19345768    -0.07300
C1726       C  0.56764184  0.87147166  0.17495792    -0.18500
C1727       C  0.54343602  0.88374768  0.17806863     0.09900
C1728       C  0.52421889  0.87367418  0.20151870    -0.07300
C1729       C  0.52992339  0.85073376  0.22028332    -0.18500
C1730       C  0.55411813  0.83815250  0.21650823     0.09900
S1731       S  0.53786382  0.91088611  0.14907392    -0.33500
S1732       S  0.55990739  0.80944319  0.24263653    -0.33500
H1733       H  0.58721367  0.81256622  0.24547101     0.27900
H1734       H  0.51382220  0.90080143  0.13749921     0.27900
H1735       H  0.58201142  0.87923732  0.15659204     0.18500
H1736       H  0.51569368  0.84281158  0.23866744     0.18500
C1737       C  0.65621355  0.79354550  0.28430395    -0.07300
C1738       C  0.63860127  0.77283550  0.28481165    -0.18500
C1739       C  0.64408689  0.75021059  0.30363691     0.09900
C1740       C  0.66641834  0.74905257  0.32618072    -0.07300
C1741       C  0.68237508  0.77125912  0.32868359    -0.18500
C1742       C  0.67757427  0.79324803  0.30785895     0.09900
S1743       S  0.62236142  0.72341624  0.29512245    -0.33500
S1744       S  0.70012474  0.81999730  0.31061021    -0.33500
H1745       H  0.68437071  0.83769261  0.29191569     0.27900
H1746       H  0.64290872  0.70634706  0.28680960     0.27900
H1747       H  0.62257558  0.77262200  0.26592474     0.18500
H1748       H  0.69889495  0.77147039  0.34668462     0.18500
C1749       C  0.66061905  0.75190258  0.07856006    -0.07300
C1750       C  0.67906924  0.73170216  0.07996209    -0.18500
C1751       C  0.67782361  0.71094066  0.05650659     0.09900
C1752       C  0.65790345  0.71019114  0.03088520    -0.07300
C1753       C  0.63840018  0.72905501  0.03095930    -0.18500
C1754       C  0.63948175  0.75004369  0.05404846     0.09900
S1755       S  0.70272674  0.68636977  0.05936455    -0.33500
S1756       S  0.61387667  0.77414064  0.05020741    -0.33500
H1757       H  0.59751920  0.76070564  0.02660237     0.27900
H1758       H  0.68943584  0.66786282  0.03888865     0.27900
H1759       H  0.69471108  0.73207582  0.09933583     0.18500
H1760       H  0.62355012  0.71895186  0.51860937     0.18500
C1761       C  0.64566391  0.87031460  0.08742015    -0.07300
C1762       C  0.62778399  0.89096701  0.08665505    -0.18500
C1763       C  0.61766699  0.90063658  0.05453210     0.09900
C1764       C  0.62528710  0.88941230  0.02203623    -0.07300
C1765       C  0.64482787  0.87030841  0.02260505    -0.18500
C1766       C  0.65517488  0.86086723  0.05472803     0.09900
S1767       S  0.59257679  0.92511033  0.05699514    -0.33500
S1768       S  0.67806578  0.83438514  0.05245688    -0.33500
H1769       H  0.68856077  0.83774241  0.08653259     0.27900
H1770       H  0.59599791  0.93480691  0.02248877     0.27900
H1771       H  0.61969118  0.89795686  0.11133858     0.18500
H1772       H  0.65053604  0.86116669  0.99803208     0.18500
C1773       C  0.61521141  0.72569583  0.17752036    -0.07300
C1774       C  0.58793667  0.72213340  0.17657351    -0.18500
C1775       C  0.57690683  0.69727116  0.17573702     0.09900
C1776       C  0.59348419  0.67533669  0.17624925    -0.07300
C1777       C  0.62072770  0.67911015  0.17515668    -0.18500
C1778       C  0.63175892  0.70385494  0.17570034     0.09900
S1779       S  0.54174210  0.69493555  0.17271162    -0.33500
S1780       S  0.66700743  0.70702378  0.17263426    -0.33500
H1781       H  0.67264161  0.68088477  0.16587398     0.27900
H1782       H  0.54214355  0.67358926  0.14978200     0.27900
H1783       H  0.57514826  0.73885008  0.17621640     0.18500
H1784       H  0.63359555  0.66251173  0.17496471     0.18500
C1785       C  0.92657463  0.85073188  0.30548394    -0.07300
C1786       C  0.92889373  0.87701532  0.31405644    -0.18500
C1787       C  0.95257572  0.89017427  0.30980556     0.09900
C1788       C  0.97479658  0.87662839  0.29757278    -0.07300
C1789       C  0.97235698  0.85049839  0.28836023    -0.18500
C1790       C  0.94847186  0.83745497  0.29193260     0.09900
S1791       S  0.95266828  0.92439675  0.31867396    -0.33500
S1792       S  0.94603406  0.80439666  0.27746631    -0.33500
H1793       H  0.97159175  0.80212734  0.26390236     0.27900
H1794       H  0.96706027  0.93083213  0.28811415     0.27900
H1795       H  0.91208513  0.88743278  0.32418248     0.18500
H1796       H  0.98931214  0.84027074  0.27840162     0.18500
C1797       C  0.87586796  0.89872877  0.46701810    -0.07300
C1798       C  0.85548095  0.88051646  0.46970968    -0.18500
C1799       C  0.84482965  0.86850144  0.43955033     0.09900
C1800       C  0.85404568  0.87524808  0.40539429    -0.07300
C1801       C  0.87235194  0.89548990  0.40256265    -0.18500
C1802       C  0.88345962  0.90702697  0.43275647     0.09900
S1803       S  0.82249601  0.84189724  0.44669842    -0.33500
S1804       S  0.91011438  0.92944930  0.42587052    -0.33500
H1805       H  0.90885286  0.94091226  0.45949649     0.27900
H1806       H  0.81188960  0.84179945  0.41236967     0.27900
H1807       H  0.84989605  0.87338036  0.49558491     0.18500
H1808       H  0.88030619  0.90033401  0.37676614     0.18500
C1809       C  0.84117572  0.79607981  0.21118831    -0.07300
C1810       C  0.81725559  0.79155987  0.19371199    -0.18500
C1811       C  0.81437800  0.77093878  0.17009284     0.09900
C1812       C  0.83603613  0.75477435  0.16329288    -0.07300
C1813       C  0.86049441  0.76100268  0.17819074    -0.18500
C1814       C  0.86324463  0.78144989  0.20192257     0.09900
S1815       S  0.78216946  0.76490272  0.15232645    -0.33500
S1816       S  0.89418869  0.78672692  0.22381490    -0.33500
H1817       H  0.90805842  0.76660838  0.20734891     0.27900
H1818       H  0.78452931  0.73779767  0.15209461     0.27900
H1819       H  0.79997117  0.80224418  0.20167409     0.18500
H1820       H  0.87752318  0.74952756  0.17157416     0.18500
C1821       C  0.84384360  0.75170216  0.41771714    -0.07300
C1822       C  0.83131794  0.72760285  0.41316162    -0.18500
C1823       C  0.83630650  0.70675360  0.43593495     0.09900
C1824       C  0.85429436  0.70965132  0.46377541    -0.07300
C1825       C  0.86910180  0.73234222  0.46582223    -0.18500
C1826       C  0.86357613  0.75374467  0.44429980     0.09900
S1827       S  0.81791675  0.67730865  0.43008140    -0.33500
S1828       S  0.88139118  0.78338861  0.45319717    -0.33500
H1829       H  0.89326407  0.77578111  0.48517639     0.27900
H1830       H  0.83429697  0.66184555  0.45135008     0.27900
H1831       H  0.81715095  0.72500783  0.39212281     0.18500
H1832       H  0.88275274  0.73439142  0.48760434     0.18500
C1833       C  0.76708011  0.81913390  0.27759496    -0.07300
C1834       C  0.76200977  0.84189710  0.25787355    -0.18500
C1835       C  0.74541649  0.84216336  0.22809417     0.09900
C1836       C  0.73316363  0.81916648  0.21659968    -0.07300
C1837       C  0.73831545  0.79631584  0.23582895    -0.18500
C1838       C  0.75434968  0.79613035  0.26628542     0.09900
S1839       S  0.74100075  0.87256221  0.20531673    -0.33500
S1840       S  0.75673796  0.76597246  0.28998003    -0.33500
H1841       H  0.75244131  0.77740718  0.32319895     0.27900
H1842       H  0.73507898  0.86171746  0.17218686     0.27900
H1843       H  0.77170817  0.85976612  0.26510512     0.18500
H1844       H  0.72826004  0.77864282  0.22859460     0.18500
C1845       C  0.88716826  0.72854031  0.32160869    -0.07300
C1846       C  0.86985529  0.70751034  0.32102345    -0.18500
C1847       C  0.87894310  0.68211907  0.32217930     0.09900
C1848       C  0.90627773  0.67730018  0.32140792    -0.07300
C1849       C  0.92361791  0.69842803  0.32304036    -0.18500
C1850       C  0.91433480  0.72393845  0.32420352     0.09900
S1851       S  0.85435828  0.65712616  0.32418305    -0.33500
S1852       S  0.93734690  0.75026456  0.32804721    -0.33500
H1853       H  0.96015811  0.73514507  0.33073765     0.27900
H1854       H  0.86478017  0.64612337  0.35527086     0.27900
H1855       H  0.84888396  0.71090821  0.32097464     0.18500
H1856       H  0.94452990  0.69491184  0.32309309     0.18500
O1857       O  0.84989897  0.79197029  0.89589515    -0.83000
C1858       C  0.84089972  0.80363619  0.74950659     0.96300
O1859       O  0.82681663  0.78955606  0.76894358    -0.72100
O1860       O  0.85523233  0.75912023  0.80703426    -0.75700
Al1861     Al  0.82732925  0.78171060  0.81735898     1.49000
C1862       C  0.87495784  0.75394702  0.82572978     0.91600
O1863       O  0.90057859  0.81526870  0.83074281    -0.81900
O1864       O  0.83697228  0.85646221  0.85102126    -0.75500
Al1865     Al  0.87338504  0.80408824  0.86124298     1.90100
O1866       O  0.88061658  0.84958352  0.81072826    -0.74600
O1867       O  0.80852414  0.83559458  0.79615427    -0.74400
O1868       O  0.85316711  0.82314406  0.76167339    -0.80100
O1869       O  0.79560003  0.80097187  0.82402278    -0.78300
O1870       O  0.84841244  0.80807467  0.82883970    -1.14400
O1871       O  0.82516205  0.76685922  0.86392808    -0.73600
C1872       C  0.83732708  0.77123359  0.89242962     0.97100
C1873       C  0.90142753  0.83738769  0.81695638     0.93500
Al1874     Al  0.84496863  0.83868699  0.80701649     1.55600
O1875       O  0.88292782  0.76960896  0.84875450    -0.78200
C1876       C  0.79077979  0.81918044  0.80235043     0.97700
C1877       C  0.85194021  0.85543179  0.87802488     0.92500
O1878       O  0.86875400  0.83762352  0.88131976    -0.83600
O1879       O  0.64694013  0.78584378  0.60645367    -0.83000
C1880       C  0.66165866  0.80565213  0.74899381     0.96300
O1881       O  0.67620342  0.79101114  0.73109858    -0.72100
O1882       O  0.64658910  0.75776246  0.69874906    -0.75700
Al1883     Al  0.67398053  0.78004788  0.68373297     1.49000
C1884       C  0.62610075  0.75176382  0.68219595     0.91600
O1885       O  0.60082056  0.81351358  0.67392860    -0.81900
O1886       O  0.66429471  0.85183664  0.64107898    -0.75500
Al1887     Al  0.62589070  0.80024496  0.64184397     1.90100
O1888       O  0.62185940  0.84921037  0.68517838    -0.74600
O1889       O  0.69434800  0.83458842  0.69756491    -0.74400
O1890       O  0.65002486  0.82498530  0.73522977    -0.80100
O1891       O  0.70537551  0.79846579  0.67227236    -0.78300
O1892       O  0.65264632  0.80578475  0.67081339    -1.14400
O1893       O  0.67442534  0.76328127  0.63852955    -0.73600
C1894       C  0.66165776  0.76657590  0.61018117     0.97100
C1895       C  0.60074985  0.83659886  0.68413797     0.93500
Al1896     Al  0.65746435  0.83762835  0.68805955     1.55600
O1897       O  0.61679414  0.76671127  0.65906754    -0.78200
C1898       C  0.71143713  0.81761955  0.69136661     0.97700
C1899       C  0.64785788  0.84932590  0.61579582     0.92500
O1900       O  0.62988307  0.83242718  0.61723817    -0.83600
O1901       O  0.35306325  0.82700672  0.84927276    -0.83000
C1902       C  0.35088152  0.80100013  0.49674993     0.96300
O1903       O  0.34764369  0.82450119  0.98260154    -0.72100
O1904       O  0.38436755  0.84398269  0.94038885    -0.75700
Al1905     Al  0.34742945  0.83794364  0.93464315     1.49000
C1906       C  0.40162057  0.84343657  0.91652354     0.91600
O1907       O  0.39665667  0.78037494  0.90085972    -0.81900
O1908       O  0.32013464  0.77060270  0.88551442    -0.75500
Al1909     Al  0.37367051  0.80411545  0.87653627     1.90100
O1910       O  0.36438922  0.75610112  0.92060894    -0.74600
O1911       O  0.30535537  0.79536650  0.94463363    -0.74400
O1912       O  0.35055629  0.78253463  0.97415839    -0.80100
O1913       O  0.30930095  0.83676772  0.93447596    -0.78300
O1914       O  0.35215608  0.80712676  0.91366756    -1.14400
O1915       O  0.34704525  0.85703265  0.88969053    -0.73600
C1916       C  0.34899214  0.85039389  0.85732483     0.97100
C1917       C  0.38838024  0.75925965  0.91386071     0.93500
Al1918     Al  0.33625852  0.77881670  0.92972905     1.55600
O1919       O  0.39721153  0.83116347  0.88853165    -0.78200
C1920       C  0.29586394  0.81777302  0.94576453     0.97700
C1921       C  0.33500785  0.76380533  0.86051548     0.92500
O1922       O  0.35613432  0.77582889  0.85509049    -0.83600
O1923       O  0.14496360  0.82380724  0.64228480    -0.83000
C1924       C  0.15239633  0.80166984  0.99330720     0.96300
O1925       O  0.15756161  0.82278117  0.50985622    -0.72100
O1926       O  0.12100153  0.84346887  0.54925232    -0.75700
Al1927     Al  0.15690162  0.83540858  0.55781391     1.49000
C1928       C  0.10180476  0.84128448  0.56984423     0.91600
O1929       O  0.10387290  0.77886432  0.58547778    -0.81900
O1930       O  0.17848826  0.76584150  0.60819166    -0.75500
Al1931     Al  0.12590121  0.80163056  0.61233272     1.90100
O1932       O  0.13586485  0.75356699  0.56855400    -0.74600
O1933       O  0.19762234  0.79093365  0.55057356    -0.74400
O1934       O  0.15323509  0.78069564  0.51724936    -0.80100
O1935       O  0.19468848  0.83239321  0.55986951    -0.78300
O1936       O  0.14973745  0.80442117  0.57776330    -1.14400
O1937       O  0.15663709  0.85366251  0.60334238    -0.73600
C1938       C  0.15227647  0.84662566  0.63525566     0.97100
C1939       C  0.11177535  0.75765187  0.57294842     0.93500
Al1940     Al  0.16522119  0.77557722  0.56274585     1.55600
O1941       O  0.10372094  0.82863055  0.59798452    -0.78200
C1942       C  0.20710453  0.81332501  0.54720021     0.97700
C1943       C  0.16205375  0.76016631  0.63208420     0.92500
O1944       O  0.14144785  0.77326003  0.63525813    -0.83600
O1945       O  0.35899327  0.71421326  0.60908026    -0.83000
C1946       C  0.34064332  0.69478225  0.75414490     0.96300
O1947       O  0.33261825  0.71288985  0.73474101    -0.72100
O1948       O  0.36670928  0.74169920  0.70267348    -0.75700
Al1949     Al  0.33633858  0.72347229  0.68797097     1.49000
C1950       C  0.38678468  0.74606877  0.68421548     0.91600
O1951       O  0.40494899  0.68342057  0.67420880    -0.81900
O1952       O  0.33887948  0.64957720  0.64622715    -0.75500
Al1953     Al  0.38017696  0.69840408  0.64359786     1.90100
O1954       O  0.38152766  0.65011366  0.69107529    -0.74600
O1955       O  0.30971971  0.67061573  0.69948930    -0.74400
O1956       O  0.35212225  0.67517994  0.74101895    -0.80100
O1957       O  0.30275154  0.70889414  0.67702018    -0.78300
O1958       O  0.35413408  0.69536300  0.67466631    -1.14400
O1959       O  0.33754707  0.74094382  0.64310575    -0.73600
C1960       C  0.34811641  0.73572430  0.61379051     0.97100
C1961       C  0.40355299  0.66080174  0.68629230     0.93500
Al1962     Al  0.34624159  0.66403566  0.69256168     1.55600
O1963       O  0.39273080  0.73118684  0.65923178    -0.78200
C1964       C  0.29451975  0.68955838  0.69456206     0.97700
C1965       C  0.35482800  0.65045032  0.62042486     0.92500
O1966       O  0.37337337  0.66660947  0.62007336    -0.83600
O1967       O  0.15313824  0.71544097  0.88625359    -0.83000
C1968       C  0.15990799  0.69296438  0.74180837     0.96300
O1969       O  0.17069317  0.71110386  0.75844085    -0.72100
O1970       O  0.13885737  0.74215182  0.79160589    -0.75700
Al1971     Al  0.16956825  0.72342990  0.80490605     1.49000
C1972       C  0.12108056  0.74856693  0.81302684     0.91600
O1973       O  0.10058024  0.68842256  0.82825396    -0.81900
O1974       O  0.16568397  0.65068285  0.85236898    -0.75500
Al1975     Al  0.12790517  0.70159778  0.85573481     1.90100
O1976       O  0.12088275  0.65333924  0.81066586    -0.74600
O1977       O  0.19346740  0.66929248  0.79515090    -0.74400
O1978       O  0.14877566  0.67438793  0.75787658    -0.80100
O1979       O  0.20273256  0.70800777  0.81470234    -0.78300
O1980       O  0.15151553  0.69649249  0.82201867    -1.14400
O1981       O  0.17113818  0.74228215  0.84845823    -0.73600
C1982       C  0.16323746  0.73710369  0.87933140     0.97100
C1983       C  0.09997322  0.66603753  0.81547906     0.93500
Al1984     Al  0.15685618  0.66449495  0.80577053     1.55600
O1985       O  0.11697171  0.73519256  0.84042698    -0.78200
C1986       C  0.20951174  0.68785893  0.79807261     0.97700
C1987       C  0.15041043  0.65232174  0.87883588     0.92500
O1988       O  0.13291089  0.66947256  0.87958720    -0.83600
O1989       O  0.91467530  0.38488574  0.50937900    -0.83000
C1990       C  0.94576534  0.41389710  0.87540577     0.96300
O1991       O  0.92791477  0.39930874  0.88790779    -0.72100
O1992       O  0.90437051  0.36970764  0.93710327    -0.75700
Al1993     Al  0.90986530  0.40623509  0.93225957     1.49000
C1994       C  0.91818102  0.35148144  0.94910899     0.91600
O1995       O  0.98265148  0.37971389  0.97850866    -0.81900
O1996       O  0.98119291  0.43471641  0.98800538    -0.75500
Al1997     Al  0.94665958  0.38606139  0.99147608     1.90100
O1998       O  0.98936805  0.40451389  0.93225981    -0.74600
O1999       O  0.94193107  0.45910001  0.95040784    -0.74400
O2000       O  0.95651339  0.43070293  0.89428224    -0.80100
O2001       O  0.90885476  0.44272215  0.92085895    -0.78300
O2002       O  0.94030911  0.40749403  0.95564180    -1.14400
O2003       O  0.88887809  0.41240160  0.97456963    -0.73600
C2004       C  0.89169531  0.40058085  0.00397086     0.97100
C2005       C  0.99689000  0.38669892  0.95266679     0.93500
Al2006     Al  0.96481484  0.43053204  0.94270356     1.55600
O2007       O  0.93868460  0.35591331  0.96627886    -0.78200
C2008       C  0.92325199  0.46191328  0.92846577     0.97700
C2009       C  0.97678173  0.42381193  0.51820294     0.92500
O2010       O  0.95606689  0.41116012  0.52188080    -0.83600
O2011       O  0.91269785  0.62109407  0.74650381    -0.83000
C2012       C  0.94797031  0.58567282  0.87487754     0.96300
O2013       O  0.92879466  0.59954804  0.86445609    -0.72100
O2014       O  0.90294204  0.63050963  0.81847953    -0.75700
Al2015     Al  0.91135460  0.59447463  0.81911081     1.49000
C2016       C  0.91630305  0.65057338  0.81279825     0.91600
O2017       O  0.98281794  0.62878421  0.77835858    -0.81900
O2018       O  0.98136842  0.57347828  0.75914653    -0.75500
Al2019     Al  0.94717841  0.62254927  0.76584320     1.90100
O2020       O  0.99154177  0.59950958  0.81839745    -0.74600
O2021       O  0.94563738  0.54436399  0.79604402    -0.74400
O2022       O  0.95980426  0.57094939  0.85399467    -0.80100
O2023       O  0.91217523  0.55787971  0.82671426    -0.78300
O2024       O  0.94190644  0.59685027  0.79650351    -1.14400
O2025       O  0.89221853  0.58955896  0.77501631    -0.73600
C2026       C  0.89411917  0.60492990  0.74863542     0.97100
C2027       C  0.99805545  0.61933034  0.80126089     0.93500
Al2028     Al  0.96716555  0.57396608  0.80561369     1.55600
O2029       O  0.93846811  0.64867509  0.79862976    -0.78200
C2030       C  0.92722925  0.53970678  0.81775410     0.97700
C2031       C  0.97663117  0.58594715  0.73116153     0.92500
O2032       O  0.95689689  0.60032954  0.72913628    -0.83600
O2033       O  0.58961163  0.61648039  0.75302073    -0.83000
C2034       C  0.55804352  0.58142513  0.62226024     0.96300
O2035       O  0.57500192  0.59755646  0.63338759    -0.72100
O2036       O  0.59643264  0.63043110  0.68065966    -0.75700
Al2037     Al  0.59276033  0.59364549  0.67825761     1.49000
C2038       C  0.58175496  0.64884778  0.68995517     0.91600
O2039       O  0.51892114  0.61792061  0.72307121    -0.81900
O2040       O  0.52428656  0.56282714  0.73753231    -0.75500
Al2041     Al  0.55518504  0.61465129  0.73448844     1.90100
O2042       O  0.51161116  0.59079379  0.68003754    -0.74600
O2043       O  0.56393156  0.53910659  0.69867897    -0.74400
O2044       O  0.54658708  0.56622302  0.64311580    -0.80100
O2045       O  0.59600261  0.55765521  0.66940264    -0.78300
O2046       O  0.56226425  0.59177977  0.70107153    -1.14400
O2047       O  0.61318101  0.58948945  0.72147318    -0.73600
C2048       C  0.61012755  0.60331068  0.74891646     0.97100
C2049       C  0.50413497  0.60946351  0.69896204     0.93500
Al2050     Al  0.53896319  0.56667227  0.69097305     1.55600
O2051       O  0.56046678  0.64414651  0.70543812    -0.78200
C2052       C  0.58333208  0.53755643  0.67756986     0.97700
C2053       C  0.52907091  0.57510782  0.76542891     0.92500
O2054       O  0.54980756  0.58802434  0.76718706    -0.83600
O2055       O  0.58109690  0.37869894  0.99375779    -0.83000
C2056       C  0.54806301  0.40587907  0.62769639     0.96300
O2057       O  0.56341426  0.38888558  0.61519308    -0.72100
O2058       O  0.58507456  0.35860841  0.56480188    -0.75700
Al2059     Al  0.58435321  0.39520033  0.57342538     1.49000
C2060       C  0.56940563  0.34306729  0.55018430     0.91600
O2061       O  0.51080338  0.38178301  0.51961056    -0.81900
O2062       O  0.52104908  0.43620149  0.51379781    -0.75500
Al2063     Al  0.54816371  0.38311738  0.51044154     1.90100
O2064       O  0.50583794  0.40527487  0.56733096    -0.74600
O2065       O  0.56201869  0.45328894  0.55670775    -0.74400
O2066       O  0.54076948  0.42487649  0.60932607    -0.80100
O2067       O  0.59011432  0.43033242  0.58781560    -0.78300
O2068       O  0.55574797  0.40192517  0.54804962    -1.14400
O2069       O  0.60775437  0.40072895  0.53397386    -0.73600
C2070       C  0.60293596  0.38793122  0.00318131     0.97100
C2071       C  0.49702478  0.38883076  0.54573573     0.93500
Al2072     Al  0.53451825  0.42796514  0.56046295     1.55600
O2073       O  0.54953133  0.35112477  0.53413241    -0.78200
C2074       C  0.58043607  0.45205815  0.57941515     0.97700
C2075       C  0.52507932  0.42549577  0.98133276     0.92500
O2076       O  0.54489978  0.41148481  0.98002780    -0.83600
O2077       O  0.84995858  0.21089999  0.85936557    -0.83000
C2078       C  0.84325998  0.19808089  0.50227860     0.96300
O2079       O  0.82991540  0.21376088  0.98716040    -0.72100
O2080       O  0.85916760  0.24340891  0.94952628    -0.75700
Al2081     Al  0.83006283  0.22233111  0.93895098     1.49000
C2082       C  0.87803661  0.24874291  0.92940857     0.91600
O2083       O  0.90115364  0.18783772  0.92367907    -0.81900
O2084       O  0.83667242  0.14745877  0.90240626    -0.75500
Al2085     Al  0.87407406  0.19904709  0.89325239     1.90100
O2086       O  0.88109034  0.15333283  0.94305655    -0.74600
O2087       O  0.80840358  0.16874534  0.95851570    -0.74400
O2088       O  0.85383822  0.17840850  0.99277197    -0.80100
O2089       O  0.79759712  0.20468502  0.93223932    -0.78300
O2090       O  0.84957044  0.19532109  0.92626295    -1.14400
O2091       O  0.82765361  0.23749440  0.89240344    -0.73600
C2092       C  0.83721273  0.23153105  0.86263134     0.97100
C2093       C  0.90210786  0.16555001  0.93716818     0.93500
Al2094     Al  0.84517538  0.16446066  0.94710171     1.55600
O2095       O  0.88417279  0.23360950  0.90482040    -0.78200
C2096       C  0.79178806  0.18656186  0.95346722     0.97700
C2097       C  0.85247961  0.14785861  0.87622176     0.92500
O2098       O  0.86956592  0.16545226  0.87350062    -0.83600
O2099       O  0.64285297  0.21915087  0.63722879    -0.83000
C2100       C  0.66051955  0.19340852  0.99784487     0.96300
O2101       O  0.67124812  0.20853270  0.51283655    -0.72100
O2102       O  0.63711812  0.23954322  0.54060683    -0.75700
Al2103     Al  0.66710255  0.22207279  0.55841932     1.49000
C2104       C  0.61583306  0.24372546  0.55639504     0.91600
O2105       O  0.59776572  0.18288857  0.57826642    -0.81900
O2106       O  0.66271395  0.15059901  0.60983936    -0.75500
Al2107     Al  0.62240501  0.20023946  0.60535420     1.90100
O2108       O  0.62041624  0.14902094  0.56363541    -0.74600
O2109       O  0.69247315  0.16848280  0.55330199    -0.74400
O2110       O  0.64925849  0.17184972  0.51186168    -0.80100
O2111       O  0.70024897  0.20768073  0.57211569    -0.78300
O2112       O  0.64856997  0.19503098  0.57525889    -1.14400
O2113       O  0.66551245  0.24302865  0.60054827    -0.73600
C2114       C  0.65376722  0.24022687  0.62972378     0.97100
C2115       C  0.59863938  0.16029544  0.56681682     0.93500
Al2116     Al  0.65575460  0.16270307  0.56123187     1.55600
O2117       O  0.60971809  0.23044777  0.58309040    -0.78200
C2118       C  0.70810634  0.18729087  0.55673473     0.97700
C2119       C  0.64734451  0.15434298  0.63601449     0.92500
O2120       O  0.62949539  0.17107952  0.63406897    -0.83600
O2121       O  0.08613090  0.11733948  0.50849760    -0.83000
C2122       C  0.05324515  0.08975176  0.87561008     0.96300
O2123       O  0.07173322  0.10391902  0.88711553    -0.72100
O2124       O  0.09684427  0.13281816  0.93504833    -0.75700
Al2125     Al  0.09016313  0.09658902  0.93095122     1.49000
C2126       C  0.08242182  0.15171629  0.94260346     0.91600
O2127       O  0.01787528  0.12490016  0.97591155    -0.81900
O2128       O  0.02004257  0.06956760  0.98934764    -0.75500
Al2129     Al  0.05374407  0.11924218  0.98765086     1.90100
O2130       O  0.00972666  0.09824417  0.93208292    -0.74600
O2131       O  0.05840334  0.04419381  0.95128855    -0.74400
O2132       O  0.04343281  0.07215547  0.89441304    -0.80100
O2133       O  0.09083780  0.06021690  0.92010482    -0.78300
O2134       O  0.05972468  0.09610544  0.95423883    -1.14400
O2135       O  0.11044940  0.09022086  0.97365477    -0.73600
C2136       C  0.10847143  0.10433880  0.00110131     0.97100
C2137       C  0.00326508  0.11704449  0.95132149     0.93500
Al2138     Al  0.03522172  0.07274553  0.94304623     1.55600
O2139       O  0.06092492  0.14782137  0.95791224    -0.78200
C2140       C  0.07701850  0.04102381  0.92934270     0.97700
C2141       C  0.02105163  0.08087443  0.51727693     0.92500
O2142       O  0.04146292  0.09417556  0.52183592    -0.83600
O2143       O  0.08515964  0.88695546  0.73902897    -0.83000
C2144       C  0.05172566  0.91300355  0.87234764     0.96300
O2145       O  0.06908702  0.89815739  0.85984004    -0.72100
O2146       O  0.09213451  0.86871312  0.81147149    -0.75700
Al2147     Al  0.08766809  0.90541470  0.81650620     1.49000
C2148       C  0.07752289  0.85085906  0.80015203     0.91600
O2149       O  0.01436873  0.88164090  0.76917471    -0.81900
O2150       O  0.01804439  0.93653629  0.76010743    -0.75500
Al2151     Al  0.05057647  0.88650121  0.75719858     1.90100
O2152       O  0.00825595  0.90596540  0.81590380    -0.74600
O2153       O  0.05748365  0.95937235  0.79804406    -0.74400
O2154       O  0.04202621  0.93087503  0.85411036    -0.80100
O2155       O  0.08959095  0.94216061  0.82844333    -0.78300
O2156       O  0.05749565  0.90769884  0.79278257    -1.14400
O2157       O  0.10904097  0.91118981  0.77468345    -0.73600
C2158       C  0.10640067  0.89832247  0.74622893     0.97100
C2159       C  0.00044203  0.88861139  0.79512319     0.93500
Al2160     Al  0.03377088  0.93131546  0.80558222     1.55600
O2161       O  0.05697825  0.85600960  0.78328279    -0.78200
C2162       C  0.07573031  0.96181007  0.82059372     0.97700
C2163       C  0.02288131  0.92719975  0.73015816     0.92500
O2164       O  0.04323324  0.91395327  0.72581109    -0.83600
O2165       O  0.14701762  0.28933292  0.86002637    -0.83000
C2166       C  0.15859466  0.30543562  0.49997789     0.96300
O2167       O  0.17409212  0.29301878  0.98553933    -0.72100
O2168       O  0.14412737  0.26037249  0.95243263    -0.75700
Al2169     Al  0.17182898  0.28239993  0.93799604     1.49000
C2170       C  0.12391905  0.25490323  0.93490697     0.91600
O2171       O  0.09883419  0.31568675  0.92604320    -0.81900
O2172       O  0.16251842  0.35545314  0.89852023    -0.75500
Al2173     Al  0.12486346  0.30328044  0.89483220     1.90100
O2174       O  0.11916748  0.35120572  0.94037585    -0.74600
O2175       O  0.19189572  0.33647966  0.95446233    -0.74400
O2176       O  0.14661923  0.32586718  0.99022203    -0.80100
O2177       O  0.20303643  0.30129780  0.92664201    -0.78300
O2178       O  0.15069451  0.30834706  0.92520072    -1.14400
O2179       O  0.17224677  0.26514346  0.89295913    -0.73600
C2180       C  0.15976158  0.26877812  0.86448908     0.97100
C2181       C  0.09825952  0.33848893  0.93709054     0.93500
Al2182     Al  0.15491765  0.33977676  0.94414459     1.55600
O2183       O  0.11549571  0.26971230  0.91104005    -0.78200
C2184       C  0.20913080  0.31984704  0.94696587     0.97700
C2185       C  0.14681351  0.35355566  0.87237040     0.92500
O2186       O  0.12946809  0.33598010  0.87148772    -0.83600
O2187       O  0.35635124  0.27171140  0.64226958    -0.83000
C2188       C  0.34599254  0.29936641  0.00422446     0.96300
O2189       O  0.35187794  0.27773424  0.52406386    -0.72100
O2190       O  0.36636401  0.25194068  0.57830841    -0.75700
Al2191     Al  0.33663703  0.27286446  0.56783288     1.49000
C2192       C  0.39005045  0.25754793  0.58405628     0.91600
O2193       O  0.39361564  0.32979032  0.60590482    -0.81900
O2194       O  0.34188515  0.35216719  0.60763737    -0.75500
Al2195     Al  0.37216487  0.30114835  0.61995369     1.90100
O2196       O  0.37808457  0.34065653  0.55416901    -0.74600
O2197       O  0.30467359  0.32795215  0.56561894    -0.74400
O2198       O  0.34146891  0.31849738  0.51466080    -0.80100
O2199       O  0.30434912  0.28707640  0.55107858    -0.78300
O2200       O  0.34997456  0.30232784  0.58361374    -1.14400
O2201       O  0.32058947  0.26421885  0.61183615    -0.73600
C2202       C  0.33557523  0.25878533  0.63743705     0.97100
C2203       C  0.39624687  0.34134097  0.57670002     0.93500
Al2204     Al  0.34219401  0.33244757  0.56259750     1.55600
O2205       O  0.39640877  0.27954737  0.59552260    -0.78200
C2206       C  0.29334772  0.30892056  0.55090944     0.97700
C2207       C  0.34423987  0.34523889  0.64004260     0.92500
O2208       O  0.35055914  0.32229988  0.64760965    -0.83600
O2209       O  0.04582450  0.59114651  0.97637278    -0.83000
C2210       C  0.05299838  0.59503383  0.62470012     0.96300
O2211       O  0.04512172  0.57593143  0.60729949    -0.72100
O2212       O  0.00992960  0.59779666  0.56838934    -0.75700
Al2213     Al  0.03677848  0.57352106  0.55916340     1.49000
C2214       C  0.00143071  0.61503075  0.54771459     0.91600
O2215       O  0.05330837  0.64958017  0.53261484    -0.81900
O2216       O  0.11023431  0.59870279  0.52630759    -0.75500
Al2217     Al  0.05020031  0.61822151  0.50811807     1.90100
O2218       O  0.08978817  0.64120268  0.56062431    -0.74600
O2219       O  0.09331231  0.56825167  0.58255816    -0.74400
O2220       O  0.06914959  0.61104341  0.61137269    -0.80100
O2221       O  0.06275867  0.54677917  0.55383163    -0.78300
O2222       O  0.05870850  0.59857026  0.54483613    -1.14400
O2223       O  0.02096370  0.56631396  0.51355957    -0.73600
C2224       C  0.02611058  0.57686635  0.98028388     0.97100
C2225       C  0.07312337  0.65717418  0.54902855     0.93500
Al2226     Al  0.08844287  0.60421465  0.56818684     1.55600
O2227       O  0.01390891  0.62068224  0.51988061    -0.78200
C2228       C  0.08178480  0.54700169  0.57576420     0.97700
C2229       C  0.10664654  0.61019830  0.49675651     0.92500
O2230       O  0.08575055  0.62080228  0.99005854    -0.83600
O2231       O  0.04166515  0.41360150  0.77157665    -0.83000
C2232       C  0.05159691  0.41240301  0.62534124     0.96300
O2233       O  0.04143279  0.43004935  0.64340422    -0.72100
O2234       O  0.00678620  0.40591446  0.68238974    -0.75700
Al2235     Al  0.03310594  0.43138071  0.69165523     1.49000
C2236       C  0.99899679  0.38808151  0.70286388     0.91600
O2237       O  0.05609056  0.35554423  0.71598909    -0.81900
O2238       O  0.10806320  0.41056189  0.72437369    -0.75500
Al2239     Al  0.04928940  0.38618344  0.74110558     1.90100
O2240       O  0.09128616  0.36811411  0.68780306    -0.74600
O2241       O  0.08982528  0.44049648  0.66962663    -0.74400
O2242       O  0.06894336  0.39757636  0.63829929    -0.80100
O2243       O  0.05753569  0.46011655  0.69697192    -0.78300
O2244       O  0.05660356  0.40739771  0.70522152    -1.14400
O2245       O  0.01710863  0.43692026  0.73744703    -0.73600
C2246       C  0.02105443  0.42631899  0.76709626     0.97100
C2247       C  0.07664940  0.35038305  0.69932606     0.93500
Al2248     Al  0.08707042  0.40456429  0.68213821     1.55600
O2249       O  0.01319541  0.38081897  0.72845426    -0.78200
C2250       C  0.07735251  0.46103961  0.67629755     0.97700
C2251       C  0.10471574  0.39882731  0.75373406     0.92500
O2252       O  0.08349648  0.38724293  0.76046268    -0.83600
O2253       O  0.95491969  0.90654033  0.97784235    -0.83000
C2254       C  0.94741523  0.91790999  0.62400851     0.96300
O2255       O  0.96126165  0.93149083  0.60359908    -0.72100
O2256       O  0.99325320  0.90430843  0.56696006    -0.75700
Al2257     Al  0.96872122  0.93011876  0.55518673     1.49000
C2258       C  0.99899875  0.88428427  0.55002668     0.91600
O2259       O  0.93843734  0.85623160  0.54842285    -0.81900
O2260       O  0.89331529  0.91596626  0.52233558    -0.75500
Al2261     Al  0.94773775  0.88215996  0.51540422     1.90100
O2262       O  0.90253670  0.87453722  0.56642822    -0.74600
O2263       O  0.91313372  0.94708862  0.57543884    -0.74400
O2264       O  0.92773317  0.90513450  0.61293134    -0.80100
O2265       O  0.94793265  0.96058144  0.54745759    -0.78300
O2266       O  0.94279065  0.90781367  0.54573655    -1.14400
O2267       O  0.98280686  0.93138206  0.50779603    -0.73600
C2268       C  0.97553688  0.91963325  0.97970366     0.97100
C2269       C  0.91583553  0.85436624  0.56140202     0.93500
Al2270     Al  0.91167413  0.91060537  0.56719935     1.55600
O2271       O  0.98336333  0.87510359  0.52759908    -0.78200
C2272       C  0.92927220  0.96497279  0.56883170     0.97700
C2273       C  0.89497144  0.89997961  0.49677552     0.92500
O2274       O  0.91104671  0.88471917  0.99413350    -0.83600
O2275       O  0.95469300  0.09831276  0.77298940    -0.83000
C2276       C  0.94581695  0.08870722  0.62664349     0.96300
O2277       O  0.95780518  0.07340214  0.64685951    -0.72100
O2278       O  0.99023681  0.09964857  0.68463752    -0.75700
Al2279     Al  0.96494203  0.07427425  0.69566833     1.49000
C2280       C  0.99663191  0.11892880  0.70284910     0.91600
O2281       O  0.93794605  0.14934502  0.70589892    -0.81900
O2282       O  0.88997748  0.09082918  0.72712630    -0.75500
Al2283     Al  0.94574854  0.12207236  0.73749508     1.90100
O2284       O  0.90194639  0.13268741  0.68513890    -0.74600
O2285       O  0.90931828  0.06017391  0.67328941    -0.74400
O2286       O  0.92694057  0.10259106  0.63784619    -0.80100
O2287       O  0.94241538  0.04521442  0.70353025    -0.78300
O2288       O  0.94008652  0.09749769  0.70562572    -1.14400
O2289       O  0.97891106  0.07173075  0.74276590    -0.73600
C2290       C  0.97434739  0.08382713  0.77109296     0.97100
C2291       C  0.91603759  0.15217938  0.69139123     0.93500
Al2292     Al  0.90940813  0.09653288  0.68297391     1.55600
O2293       O  0.98134634  0.12792802  0.72578985    -0.78200
C2294       C  0.92417536  0.04157854  0.68126115     0.97700
C2295       C  0.89202075  0.10577587  0.75384785     0.92500
O2296       O  0.91115543  0.12119661  0.75650648    -0.83600
O2297       O  0.86960420  0.66799927  0.63305911    -0.83000
C2298       C  0.84204556  0.69595779  0.99858770     0.96300
O2299       O  0.86032647  0.68023288  0.51256651    -0.72100
O2300       O  0.88569706  0.65621288  0.56455691    -0.75700
Al2301     Al  0.85007511  0.66463482  0.55694261     1.49000
C2302       C  0.90534298  0.66976274  0.57199093     0.91600
O2303       O  0.88109945  0.73651594  0.59900239    -0.81900
O2304       O  0.82360793  0.73663148  0.60832337    -0.75500
Al2305     Al  0.87317766  0.70161851  0.61233648     1.90100
O2306       O  0.85572475  0.74435534  0.55336601    -0.74600
O2307       O  0.79815433  0.69938055  0.56927170    -0.74400
O2308       O  0.83055474  0.71109363  0.51493858    -0.80100
O2309       O  0.81415522  0.66540206  0.54268981    -0.78300
O2310       O  0.85051987  0.69564641  0.57775792    -1.14400
O2311       O  0.84074483  0.64683434  0.60044553    -0.73600
C2312       C  0.85434972  0.64895036  0.62856902     0.97100
C2313       C  0.87400066  0.75095566  0.57380681     0.93500
Al2314     Al  0.82861688  0.72047565  0.56302597     1.55600
O2315       O  0.90279866  0.69188689  0.58512866    -0.78200
C2316       C  0.79518541  0.68036422  0.54852845     0.97700
C2317       C  0.83355419  0.73237756  0.63836149     0.92500
O2318       O  0.84675760  0.71220710  0.64365569    -0.83600
O2319       O  0.63317121  0.66578009  0.86674942    -0.83000
C2320       C  0.66657401  0.69669649  0.49614668     0.96300
O2321       O  0.65044782  0.68025094  0.98404961    -0.72100
O2322       O  0.62158388  0.65533554  0.93666798    -0.75700
Al2323     Al  0.65809764  0.66425849  0.93960013     1.49000
C2324       C  0.60166182  0.66953533  0.93351342     0.91600
O2325       O  0.62392481  0.73457758  0.89810456    -0.81900
O2326       O  0.68084544  0.73476891  0.88202757    -0.75500
Al2327     Al  0.63103830  0.69985560  0.88614594     1.90100
O2328       O  0.65213143  0.74430514  0.93973739    -0.74600
O2329       O  0.70890247  0.69935463  0.92091639    -0.74400
O2330       O  0.67916998  0.71200808  0.97763573    -0.80100
O2331       O  0.69488543  0.66574485  0.95022364    -0.78300
O2332       O  0.65608256  0.69488100  0.91784300    -1.14400
O2333       O  0.66522787  0.64631382  0.89572401    -0.73600
C2334       C  0.64963273  0.64757770  0.86945716     0.97100
C2335       C  0.63258241  0.74989069  0.92100892     0.93500
Al2336     Al  0.67856034  0.72016756  0.92881458     1.55600
O2337       O  0.60385252  0.69103434  0.91817952    -0.78200
C2338       C  0.71324323  0.68126649  0.94283379     0.97700
C2339       C  0.66840059  0.73042326  0.85371267     0.92500
O2340       O  0.65496542  0.71011666  0.85094997    -0.83600
O2341       O  0.42044205  0.90051057  0.76050298    -0.83000
C2342       C  0.46257697  0.91742875  0.62521239     0.96300
O2343       O  0.44265664  0.90354796  0.63131069    -0.72100
O2344       O  0.42629885  0.86523693  0.66993387    -0.75700
Al2345     Al  0.42085273  0.90193859  0.67257599     1.49000
C2346       C  0.42702894  0.84975099  0.69544811     0.91600
O2347       O  0.48200005  0.87425864  0.71752842    -0.81900
O2348       O  0.47202789  0.94577927  0.74449018    -0.75500
Al2349     Al  0.45109108  0.88765690  0.73906393     1.90100
O2350       O  0.49880887  0.91209287  0.70079069    -0.74600
O2351       O  0.44231623  0.96115993  0.68743548    -0.74400
O2352       O  0.47272490  0.93085634  0.64869994    -0.80100
O2353       O  0.41077989  0.93688534  0.66550987    -0.78300
O2354       O  0.44675188  0.90887061  0.70248334    -1.14400
O2355       O  0.39559743  0.89893451  0.71194914    -0.73600
C2356       C  0.39799301  0.89941538  0.74579883     0.97100
C2357       C  0.50105120  0.88773227  0.70550297     0.93500
Al2358     Al  0.46917986  0.93524195  0.69617994     1.55600
O2359       O  0.43245073  0.85825141  0.72522493    -0.78200
C2360       C  0.42157636  0.95866434  0.66895725     0.97700
C2361       C  0.48136866  0.92982700  0.76629890     0.92500
O2362       O  0.47206681  0.90766498  0.76745049    -0.83600
O2363       O  0.41053842  0.12800313  0.00445576    -0.83000
C2364       C  0.44888697  0.09298828  0.63082616     0.96300
O2365       O  0.43325138  0.11044509  0.62010773    -0.72100
O2366       O  0.41162397  0.14299075  0.57328863    -0.75700
Al2367     Al  0.41101757  0.10592762  0.57889746     1.49000
C2368       C  0.42869037  0.15831727  0.56106194     0.91600
O2369       O  0.48392780  0.11894802  0.52546623    -0.81900
O2370       O  0.47290732  0.06615209  0.51618409    -0.75500
Al2371     Al  0.44703625  0.11949137  0.51668346     1.90100
O2372       O  0.48914921  0.09381365  0.57199269    -0.74600
O2373       O  0.43117481  0.04809035  0.55752786    -0.74400
O2374       O  0.45294156  0.07310354  0.61267193    -0.80100
O2375       O  0.40423155  0.07013731  0.59116885    -0.78300
O2376       O  0.43910668  0.09931924  0.55284050    -1.14400
O2377       O  0.38722507  0.10241005  0.53879690    -0.73600
C2378       C  0.39025893  0.11409218  0.50931932     0.97100
C2379       C  0.49779433  0.11086332  0.55098335     0.93500
Al2380     Al  0.45960286  0.07222245  0.56346253     1.55600
O2381       O  0.44746490  0.15008866  0.54308325    -0.78200
C2382       C  0.41292211  0.04852918  0.58060480     0.97700
C2383       C  0.46536344  0.08061588  0.98837014     0.92500
O2384       O  0.44622504  0.09562436  0.98760089    -0.83600
O2385       O  0.36745013  0.16715078  0.88279093    -0.83000
C2386       C  0.33387706  0.19185245  0.74893095     0.96300
O2387       O  0.34416377  0.17222183  0.76386542    -0.72100
O2388       O  0.37384337  0.14962161  0.81418765    -0.75700
Al2389     Al  0.33836877  0.16245028  0.81277934     1.49000
C2390       C  0.39547018  0.16155841  0.81432089     0.91600
O2391       O  0.38290175  0.23197772  0.84122702    -0.81900
O2392       O  0.32603813  0.23881159  0.85838384    -0.75500
Al2393     Al  0.37213672  0.19893937  0.85776670     1.90100
O2394       O  0.35578861  0.24180652  0.79873703    -0.74600
O2395       O  0.29374516  0.20585139  0.82395080    -0.74400
O2396       O  0.32464060  0.21029320  0.76662345    -0.80100
O2397       O  0.30175851  0.16721301  0.80488015    -0.78300
O2398       O  0.34552296  0.19454132  0.82795924    -1.14400
O2399       O  0.33157565  0.14993316  0.86084731    -0.73600
C2400       C  0.34840507  0.15169371  0.88562151     0.97100
C2401       C  0.37585820  0.24686306  0.81667871     0.93500
Al2402     Al  0.32653309  0.22166493  0.81340304     1.55600
O2403       O  0.39665317  0.18433670  0.82593802    -0.78200
C2404       C  0.28659061  0.18636696  0.80636172     0.97700
C2405       C  0.33691726  0.23412950  0.88777820     0.92500
O2406       O  0.35084646  0.21426471  0.89232183    -0.83600
O2407       O  0.12921636  0.16667272  0.62022720    -0.83000
C2408       C  0.15702641  0.19837978  0.75340027     0.96300
O2409       O  0.14583910  0.17892482  0.73977936    -0.72100
O2410       O  0.11831594  0.15418641  0.69088874    -0.75700
Al2411     Al  0.15404793  0.16549255  0.69368657     1.49000
C2412       C  0.09737966  0.16666342  0.68579366     0.91600
O2413       O  0.11406838  0.23422683  0.65339560    -0.81900
O2414       O  0.16880074  0.24009709  0.64094889    -0.75500
Al2415     Al  0.12451147  0.20002798  0.64075310     1.90100
O2416       O  0.13800593  0.24347209  0.69946978    -0.74600
O2417       O  0.20071592  0.20720091  0.67749158    -0.74400
O2418       O  0.17017855  0.21401705  0.73495928    -0.80100
O2419       O  0.19068814  0.17027054  0.70280916    -0.78300
O2420       O  0.14906496  0.19639663  0.67358228    -1.14400
O2421       O  0.16220096  0.14895019  0.64888408    -0.73600
C2422       C  0.14662091  0.14941687  0.62260805     0.97100
C2423       C  0.11916624  0.24876282  0.67910325     0.93500
Al2424     Al  0.16804382  0.22373948  0.68682778     1.55600
O2425       O  0.09786443  0.18841315  0.67094338    -0.78200
C2426       C  0.20725388  0.18784694  0.69619262     0.97700
C2427       C  0.15973051  0.23389815  0.61099330     0.92500
O2428       O  0.14850511  0.21246418  0.60712229    -0.83600
O2429       O  0.54317506  0.89036100  0.50181409    -0.83000
C2430       C  0.55963272  0.92302949  0.86552360     0.96300
O2431       O  0.54623721  0.93453318  0.88878503    -0.72100
O2432       O  0.51080814  0.91165562  0.92782117    -0.75700
Al2433     Al  0.54108725  0.93212199  0.93757722     1.49000
C2434       C  0.50512063  0.88821320  0.93249423     0.91600
O2435       O  0.56559859  0.85442045  0.92754872    -0.81900
O2436       O  0.61244869  0.90812837  0.96568074    -0.75500
Al2437     Al  0.55545962  0.87670531  0.96416366     1.90100
O2438       O  0.60312930  0.87140136  0.91723877    -0.74600
O2439       O  0.59815717  0.94300678  0.91457850    -0.74400
O2440       O  0.57818285  0.90731173  0.87379967    -0.80100
O2441       O  0.56667685  0.95911822  0.94529683    -0.78300
O2442       O  0.56353099  0.90561697  0.94103543    -1.14400
O2443       O  0.53164982  0.93246080  0.98626914    -0.73600
C2444       C  0.53281217  0.91174701  0.50823632     0.97100
C2445       C  0.58888251  0.85176816  0.91850021     0.93500
Al2446     Al  0.59505067  0.90729629  0.92002812     1.55600
O2447       O  0.52156213  0.87269211  0.94505370    -0.78200
C2448       C  0.58515322  0.96221558  0.92330326     0.97700
C2449       C  0.60817750  0.89151851  0.99020581     0.92500
O2450       O  0.58984608  0.87336189  0.48629675    -0.83600
O2451       O  0.55072028  0.09578512  0.72835548    -0.83000
C2452       C  0.53449736  0.09652652  0.87155226     0.96300
O2453       O  0.53234188  0.07686605  0.85227567    -0.72100
O2454       O  0.50127966  0.09298598  0.80348841    -0.75700
Al2455     Al  0.53320203  0.07391061  0.80308399     1.49000
C2456       C  0.49380215  0.11099008  0.78330978     0.91600
O2457       O  0.54253314  0.15316020  0.78665124    -0.81900
O2458       O  0.60497800  0.10780657  0.79074855    -0.75500
Al2459     Al  0.54692055  0.12317404  0.75964392     1.90100
O2460       O  0.57612890  0.14727623  0.82143718    -0.74600
O2461       O  0.58484536  0.07586422  0.84272917    -0.74400
O2462       O  0.55140030  0.11400073  0.86456169    -0.80100
O2463       O  0.56311159  0.05106877  0.80634714    -0.78300
O2464       O  0.55261059  0.10250697  0.79651385    -1.14400
O2465       O  0.52812770  0.06581389  0.75391407    -0.73600
C2466       C  0.53270076  0.07951032  0.72685822     0.97100
C2467       C  0.55914950  0.16189984  0.80780160     0.93500
Al2468     Al  0.57759960  0.11054445  0.82730348     1.55600
O2469       O  0.50952734  0.12101585  0.76143406    -0.78200
C2470       C  0.57815253  0.05351020  0.83300323     0.97700
C2471       C  0.60395920  0.11962097  0.76095291     0.92500
O2472       O  0.58291099  0.12995517  0.75055622    -0.83600
O2473       O  0.86590296  0.33574579  0.61871320    -0.83000
C2474       C  0.83683673  0.30441660  0.75086339     0.96300
O2475       O  0.84934116  0.32362147  0.73809831    -0.72100
O2476       O  0.87714454  0.34976717  0.68880084    -0.75700
Al2477     Al  0.84114300  0.33869899  0.69236651     1.49000
C2478       C  0.89811020  0.33741376  0.68391372     0.91600
O2479       O  0.87926071  0.26876914  0.65613262    -0.81900
O2480       O  0.82245116  0.26541007  0.63943637    -0.75500
Al2481     Al  0.87038332  0.30279264  0.64081994     1.90100
O2482       O  0.85093851  0.25968947  0.69807247    -0.74600
O2483       O  0.79267933  0.30128972  0.67329115    -0.74400
O2484       O  0.82101886  0.29161908  0.73239463    -0.80100
O2485       O  0.80381402  0.33551617  0.70281666    -0.78300
O2486       O  0.84492309  0.30772473  0.67210856    -1.14400
O2487       O  0.83376183  0.35551870  0.64725675    -0.73600
C2488       C  0.84913553  0.35372181  0.62067969     0.97100
C2489       C  0.87060423  0.25371324  0.67972417     0.93500
Al2490     Al  0.82340375  0.28194408  0.68442525     1.55600
O2491       O  0.89729521  0.31492791  0.67143093    -0.78200
C2492       C  0.78648464  0.31893894  0.69482702     0.97700
C2493       C  0.83412198  0.26933688  0.61055059     0.92500
O2494       O  0.84760373  0.28951238  0.60606398    -0.83600
O2495       O  0.64342991  0.31952224  0.89245454    -0.83000
C2496       C  0.64567065  0.30232129  0.74509167     0.96300
O2497       O  0.65295365  0.32291199  0.75987695    -0.72100
O2498       O  0.61614575  0.34280671  0.80021683    -0.75700
Al2499     Al  0.65177469  0.33329229  0.80876119     1.49000
C2500       C  0.59769599  0.34253069  0.82238951     0.91600
O2501       O  0.59467163  0.28148086  0.83832258    -0.81900
O2502       O  0.66822629  0.25969268  0.85081731    -0.75500
Al2503     Al  0.62032892  0.30067420  0.86329709     1.90100
O2504       O  0.62225748  0.25413239  0.81426350    -0.74600
O2505       O  0.68757282  0.28659373  0.79459968    -0.74400
O2506       O  0.64050412  0.28234222  0.76299516    -0.80100
O2507       O  0.68898548  0.32682840  0.81236424    -0.78300
O2508       O  0.64235104  0.30236563  0.82661782    -1.14400
O2509       O  0.65189720  0.35079435  0.85483799    -0.73600
C2510       C  0.64899486  0.34292126  0.88657473     0.97100
C2511       C  0.59934134  0.26016574  0.82368738     0.93500
Al2512     Al  0.65387105  0.27325776  0.80743359     1.55600
O2513       O  0.60042901  0.33076726  0.85144891    -0.78200
C2514       C  0.69969662  0.30792674  0.79648945     0.97700
C2515       C  0.65383444  0.25556922  0.87759787     0.92500
O2516       O  0.63419630  0.26972634  0.88326372    -0.83600
O2517       O  0.47111285  0.60435139  0.52031653    -0.83000
C2518       C  0.45851808  0.59405523  0.87707114     0.96300
O2519       O  0.47401582  0.58772173  0.90117850    -0.72100
O2520       O  0.49781086  0.60390583  0.95579901    -0.75700
Al2521     Al  0.47091256  0.57891510  0.94772589     1.49000
C2522       C  0.49824043  0.62816255  0.96035139     0.91600
O2523       O  0.42707377  0.65015231  0.97295745    -0.81900
O2524       O  0.39214487  0.60581833  0.96911213    -0.75500
Al2525     Al  0.44800276  0.62363067  0.99055040     1.90100
O2526       O  0.41799050  0.63893233  0.91934517    -0.74600
O2527       O  0.40967931  0.56495208  0.92748575    -0.74400
O2528       O  0.43464445  0.59881423  0.88316926    -0.80100
O2529       O  0.44961053  0.55034661  0.93544643    -0.78300
O2530       O  0.44475597  0.60108636  0.95503384    -1.14400
O2531       O  0.47265206  0.56660359  0.99520008    -0.73600
C2532       C  0.48099211  0.58231241  0.51914980     0.97100
C2533       C  0.41995882  0.65619446  0.94252932     0.93500
Al2534     Al  0.41595916  0.60200053  0.92756475     1.55600
O2535       O  0.47763182  0.64021022  0.96913392    -0.78200
C2536       C  0.42669395  0.54731110  0.92359700     0.97700
C2537       C  0.39656995  0.60678811  0.00252541     0.92500
O2538       O  0.42094211  0.60874886  0.51487300    -0.83600
O2539       O  0.45092994  0.41107781  0.72852502    -0.83000
C2540       C  0.44763803  0.41351325  0.87472637     0.96300
O2541       O  0.45571615  0.43144920  0.85513012    -0.72100
O2542       O  0.48904808  0.40624744  0.81585512    -0.75700
Al2543     Al  0.46248103  0.43072137  0.80617614     1.49000
C2544       C  0.49586956  0.38760473  0.79651980     0.91600
O2545       O  0.43863956  0.35451498  0.78812225    -0.81900
O2546       O  0.38668284  0.40957181  0.78056279    -0.75500
Al2547     Al  0.44458108  0.38436736  0.76106464     1.90100
O2548       O  0.40440893  0.36772868  0.81777023    -0.74600
O2549       O  0.40758357  0.44174139  0.83297511    -0.74400
O2550       O  0.42976299  0.39815899  0.86438357    -0.80100
O2551       O  0.43780266  0.45796822  0.79855127    -0.78300
O2552       O  0.43872423  0.40634805  0.79613452    -1.14400
O2553       O  0.47685425  0.43478990  0.75984524    -0.73600
C2554       C  0.47175694  0.42372361  0.73115165     0.97100
C2555       C  0.41826880  0.34968760  0.80544422     0.93500
Al2556     Al  0.40933038  0.40454673  0.82174964     1.55600
O2557       O  0.48122955  0.37939400  0.77196614    -0.78200
C2558       C  0.42066044  0.46131200  0.82243676     0.97700
C2559       C  0.38863482  0.39650820  0.75206001     0.92500
O2560       O  0.40957095  0.38481900  0.74436522    -0.83600
C2561       C  0.42273469  0.52506212  0.89844763    -0.07300
C2562       C  0.44382736  0.52012959  0.87552662    -0.18500
C2563       C  0.44285458  0.50148929  0.84886442     0.09900
C2564       C  0.42013391  0.48587307  0.84432734    -0.07300
C2565       C  0.39861038  0.49099065  0.86703383    -0.18500
C2566       C  0.39954652  0.51044177  0.89352834     0.09900
S2567       S  0.47259299  0.49815715  0.82365858    -0.33500
S2568       S  0.37117766  0.51461616  0.92122612    -0.33500
H2569       H  0.38504723  0.52310942  0.95115261     0.27900
H2570       H  0.45965202  0.49874248  0.79088363     0.27900
H2571       H  0.46161973  0.53149526  0.87786027     0.18500
H2572       H  0.38114314  0.47916070  0.86494425     0.18500
C2573       C  0.57202039  0.35481403  0.81458776    -0.07300
C2574       C  0.54942974  0.34258891  0.82811248    -0.18500
C2575       C  0.52433078  0.35252963  0.82214226     0.09900
C2576       C  0.52152677  0.37553552  0.80241037    -0.07300
C2577       C  0.54382236  0.38760665  0.78818637    -0.18500
C2578       C  0.56898732  0.37750934  0.79384859     0.09900
S2579       S  0.49694749  0.33464635  0.84036279    -0.33500
S2580       S  0.59604430  0.39482227  0.77419498    -0.33500
H2581       H  0.61337866  0.39092357  0.80247575     0.27900
H2582       H  0.47794476  0.35418046  0.83889113     0.27900
H2583       H  0.55128358  0.32487111  0.84334615     0.18500
H2584       H  0.54159225  0.40517372  0.77269528     0.18500
C2585       C  0.76237463  0.31685572  0.71810539    -0.07300
C2586       C  0.75694718  0.33698463  0.74227090    -0.18500
C2587       C  0.73837938  0.33430486  0.76986267     0.09900
C2588       C  0.72422901  0.31087683  0.77416490    -0.07300
C2589       C  0.73036737  0.29052528  0.75072964    -0.18500
C2590       C  0.74825004  0.29338183  0.72266661     0.09900
S2591       S  0.73457626  0.36123973  0.79939747    -0.33500
S2592       S  0.75088983  0.26628567  0.69305186    -0.33500
H2593       H  0.74837320  0.28164689  0.66240254     0.27900
H2594       H  0.73296330  0.34566188  0.82996333     0.27900
H2595       H  0.76791938  0.35489546  0.74045082     0.18500
H2596       H  0.71981099  0.27237759  0.75259100     0.18500
C2597       C  0.56059320  0.18981804  0.81359508    -0.07300
C2598       C  0.56277001  0.20576159  0.78367011    -0.18500
C2599       C  0.57191028  0.23106648  0.78680135     0.09900
C2600       C  0.57888297  0.24053152  0.82030061    -0.07300
C2601       C  0.57293023  0.22592464  0.85056403    -0.18500
C2602       C  0.56402455  0.20045409  0.84752571     0.09900
S2603       S  0.57623377  0.24978780  0.74710481    -0.33500
S2604       S  0.55873375  0.18200912  0.88743960    -0.33500
H2605       H  0.53969616  0.16547668  0.87289187     0.27900
H2606       H  0.57650860  0.27404619  0.76383177     0.27900
H2607       H  0.55949774  0.19784743  0.75751618     0.18500
H2608       H  0.57730659  0.23360405  0.87649268     0.18500
C2609       C  0.58848613  0.98638448  0.90158675    -0.07300
C2610       C  0.58071845  0.01005167  0.91546805    -0.18500
C2611       C  0.58030334  0.03243578  0.89440532     0.09900
C2612       C  0.58417457  0.03110020  0.85707499    -0.07300
C2613       C  0.59229627  0.00749722  0.84312881    -0.18500
C2614       C  0.59633340  0.98584581  0.86513652     0.09900
S2615       S  0.57497298  0.06191997  0.91767262    -0.33500
S2616       S  0.61185479  0.95860735  0.84429262    -0.33500
H2617       H  0.63157847  0.95673418  0.87020392     0.27900
H2618       H  0.59864804  0.07305191  0.90606239     0.27900
H2619       H  0.57555578  0.01128046  0.94323202     0.18500
H2620       H  0.59645370  0.00615102  0.81507893     0.18500
C2621       C  0.46707207  0.12215382  0.78670099    -0.07300
C2622       C  0.46389802  0.14855231  0.77856872    -0.18500
C2623       C  0.44052773  0.16167534  0.78607341     0.09900
C2624       C  0.41967528  0.14823979  0.80252451    -0.07300
C2625       C  0.42221458  0.12152080  0.80871762    -0.18500
C2626       C  0.44543274  0.10832735  0.80062709     0.09900
S2627       S  0.43758241  0.19544497  0.77395795    -0.33500
S2628       S  0.44576922  0.07386173  0.80777690    -0.33500
H2629       H  0.46190891  0.06844440  0.77866062     0.27900
H2630       H  0.46193916  0.19788379  0.75683005     0.27900
H2631       H  0.48019308  0.15926313  0.76742924     0.18500
H2632       H  0.40609133  0.11084052  0.82042472     0.18500
C2633       C  0.23126483  0.18839221  0.71861219    -0.07300
C2634       C  0.23617240  0.21091317  0.73834035    -0.18500
C2635       C  0.25205252  0.21060379  0.76883305     0.09900
C2636       C  0.26448188  0.18732473  0.77984464    -0.07300
C2637       C  0.25996949  0.16500742  0.75917152    -0.18500
C2638       C  0.24391883  0.16536277  0.72900633     0.09900
S2639       S  0.25417168  0.24034451  0.79323854    -0.33500
S2640       S  0.24053983  0.13573146  0.70440844    -0.33500
H2641       H  0.23427051  0.14767297  0.67197169     0.27900
H2642       H  0.25000370  0.22828456  0.82622735     0.27900
H2643       H  0.22588002  0.22858523  0.73163047     0.18500
H2644       H  0.26962195  0.14700414  0.76591058     0.18500
C2645       C  0.40964606  0.32268071  0.80878000    -0.07300
C2646       C  0.40375354  0.30903908  0.77764939    -0.18500
C2647       C  0.39363807  0.28382171  0.77893527     0.09900
C2648       C  0.38959213  0.27184400  0.81214586    -0.07300
C2649       C  0.39635942  0.28535746  0.84307493    -0.18500
C2650       C  0.40606910  0.31060924  0.84180244     0.09900
S2651       S  0.38638920  0.26810124  0.73752166    -0.33500
S2652       S  0.41307037  0.32651603  0.88313700    -0.33500
H2653       H  0.43365326  0.34203480  0.87030371     0.27900
H2654       H  0.39194957  0.24289401  0.74947556     0.27900
H2655       H  0.40648562  0.31835962  0.75214424     0.18500
H2656       H  0.39325315  0.27649912  0.86868400     0.18500
C2657       C  0.36799548  0.11907929  0.98534886    -0.07300
C2658       C  0.37129894  0.10434067  0.95443265    -0.18500
C2659       C  0.36101833  0.11245560  0.92159973     0.09900
C2660       C  0.34739393  0.13615949  0.91896422    -0.07300
C2661       C  0.34172638  0.14944092  0.95050738    -0.18500
C2662       C  0.35157150  0.14104271  0.98347933     0.09900
S2663       S  0.36922208  0.09374172  0.88307086    -0.33500
S2664       S  0.34898140  0.15982214  0.51732993    -0.33500
H2665       H  0.35330440  0.14082835  0.54338396     0.27900
H2666       H  0.34777648  0.10204434  0.86265637     0.27900
H2667       H  0.38422332  0.08772302  0.95511440     0.18500
H2668       H  0.33170823  0.16789064  0.94902309     0.18500
C2669       C  0.48375275  0.08186266  0.95854952    -0.07300
C2670       C  0.50871935  0.09267921  0.96473470    -0.18500
C2671       C  0.52448386  0.10166016  0.93680843     0.09900
C2672       C  0.51636965  0.09694661  0.90193125    -0.07300
C2673       C  0.49121665  0.08643844  0.89591803    -0.18500
C2674       C  0.47473237  0.07939580  0.92377409     0.09900
S2675       S  0.55418797  0.11950634  0.94596286    -0.33500
S2676       S  0.44232094  0.06702833  0.91477744    -0.33500
H2677       H  0.44107402  0.07626136  0.38038267     0.27900
H2678       H  0.55194438  0.11920273  0.98304251     0.27900
H2679       H  0.51539375  0.09525571  0.99154033     0.18500
H2680       H  0.48456217  0.08332200  0.86909214     0.18500
C2681       C  0.51182500  0.08243828  0.69968223    -0.07300
C2682       C  0.48790959  0.06984102  0.70634278    -0.18500
C2683       C  0.46514325  0.07645777  0.68803344     0.09900
C2684       C  0.46593687  0.09567177  0.66163687    -0.07300
C2685       C  0.48945121  0.10894874  0.65551060    -0.18500
C2686       C  0.51247456  0.10217928  0.67336201     0.09900
S2687       S  0.43500044  0.06008601  0.69840394    -0.33500
S2688       S  0.54198481  0.11867630  0.65956907    -0.33500
H2689       H  0.55792147  0.09655868  0.66224672     0.27900
H2690       H  0.44551445  0.04130916  0.72137594     0.27900
H2691       H  0.48676942  0.05519226  0.72679540     0.18500
H2692       H  0.49054825  0.12285831  0.63399520     0.18500
C2693       C  0.40612953  0.02445820  0.60107646    -0.07300
C2694       C  0.41253665  0.00037767  0.58689324    -0.18500
C2695       C  0.41331744  0.97816448  0.60821896     0.09900
C2696       C  0.41211288  0.98031809  0.64570778    -0.07300
C2697       C  0.40330468  0.00381978  0.65966389    -0.18500
C2698       C  0.39795856  0.02514701  0.63713123     0.09900
S2699       S  0.41570296  0.94783678  0.58547602    -0.33500
S2700       S  0.37949067  0.05215581  0.65428814    -0.33500
H2701       H  0.37387895  0.04111642  0.68753458     0.27900
H2702       H  0.39413510  0.93691117  0.60328524     0.27900
H2703       H  0.41690351  0.99880054  0.55892304     0.18500
H2704       H  0.40005152  0.00526500  0.68788957     0.18500
C2705       C  0.50711687  0.93258759  0.78425205    -0.07300
C2706       C  0.52293745  0.91005155  0.78513580    -0.18500
C2707       C  0.54506928  0.90809020  0.80637577     0.09900
C2708       C  0.55100984  0.92853326  0.82896467    -0.07300
C2709       C  0.53860927  0.95274587  0.82302310    -0.18500
C2710       C  0.51636443  0.95488969  0.80130207     0.09900
S2711       S  0.56255158  0.87785782  0.80716060    -0.33500
S2712       S  0.49937262  0.98539151  0.79984923    -0.33500
H2713       H  0.47403123  0.97470622  0.79996817     0.27900
H2714       H  0.58712239  0.88946516  0.81308221     0.27900
H2715       H  0.51720292  0.89290568  0.77091925     0.18500
H2716       H  0.54382584  0.96912229  0.83939116     0.18500
C2717       C  0.51442065  0.91301149  0.53821261    -0.07300
C2718       C  0.50814013  0.93725445  0.55206670    -0.18500
C2719       C  0.48924562  0.93968408  0.57853518     0.09900
C2720       C  0.47628106  0.91727311  0.59134790    -0.07300
C2721       C  0.48136458  0.89333226  0.57633372    -0.18500
C2722       C  0.50029156  0.89071841  0.55004603     0.09900
S2723       S  0.48192590  0.97150621  0.59572486    -0.33500
S2724       S  0.50487142  0.85867217  0.53178831    -0.33500
H2725       H  0.48991390  0.84475018  0.55670207     0.27900
H2726       H  0.49940852  0.98555661  0.57418970     0.27900
H2727       H  0.51817840  0.95428963  0.54221784     0.18500
H2728       H  0.47131960  0.87641261  0.58658151     0.18500
C2729       C  0.57540083  0.66045548  0.94559376    -0.07300
C2730       C  0.55321261  0.67586566  0.93836117    -0.18500
C2731       C  0.52764136  0.66676612  0.94434137     0.09900
C2732       C  0.52398195  0.64123575  0.95698688    -0.07300
C2733       C  0.54615109  0.62655309  0.96613459    -0.18500
C2734       C  0.57149769  0.63608284  0.96196081     0.09900
S2735       S  0.50105939  0.68863682  0.93435353    -0.33500
S2736       S  0.59755879  0.61611092  0.97906455    -0.33500
H2737       H  0.60997828  0.63675018  0.99656963     0.27900
H2738       H  0.48371488  0.67026740  0.92039747     0.27900
H2739       H  0.55567409  0.69497177  0.92695192     0.18500
H2740       H  0.54376457  0.60732150  0.97721724     0.18500
C2741       C  0.59986972  0.82545936  0.91450444    -0.07300
C2742       C  0.58399803  0.80433064  0.92462533    -0.18500
C2743       C  0.59440427  0.77957467  0.92876227     0.09900
C2744       C  0.62127402  0.77567675  0.92278038    -0.07300
C2745       C  0.63710325  0.79634793  0.91185747    -0.18500
C2746       C  0.62664949  0.82099200  0.90675803     0.09900
S2747       S  0.57259499  0.75390859  0.94252028    -0.33500
S2748       S  0.64842726  0.84530223  0.88906891    -0.33500
H2749       H  0.62968865  0.85538383  0.86541971     0.27900
H2750       H  0.59173282  0.73855439  0.95913913     0.27900
H2751       H  0.56345184  0.80716853  0.93069043     0.18500
H2752       H  0.65754240  0.79294970  0.90551477     0.18500
C2753       C  0.73643574  0.68120285  0.96734711    -0.07300
C2754       C  0.74270181  0.65781355  0.98470784    -0.18500
C2755       C  0.76155456  0.65586908  0.51194951     0.09900
C2756       C  0.77309591  0.67937972  0.52289991    -0.07300
C2757       C  0.76874923  0.70156831  0.50212154    -0.18500
C2758       C  0.74730882  0.70435041  0.98129138     0.09900
S2759       S  0.76672087  0.62585068  0.53538365    -0.33500
S2760       S  0.74366331  0.73555963  0.96066629    -0.33500
H2761       H  0.74967278  0.72634893  0.92665128     0.27900
H2762       H  0.77226100  0.63709911  0.56836383     0.27900
H2763       H  0.73431884  0.63986460  0.97522576     0.18500
H2764       H  0.77878858  0.71940529  0.50860249     0.18500
C2765       C  0.90536266  0.17837630  0.68526200    -0.07300
C2766       C  0.87805427  0.18123384  0.68651435    -0.18500
C2767       C  0.86632389  0.20556630  0.68546625     0.09900
C2768       C  0.88229472  0.22786002  0.68342407    -0.07300
C2769       C  0.90955336  0.22510453  0.68037002    -0.18500
C2770       C  0.92131557  0.20058008  0.68114297     0.09900
S2771       S  0.83090773  0.20749166  0.68494100    -0.33500
S2772       S  0.95637143  0.19795313  0.67520991    -0.33500
H2773       H  0.96136222  0.22440844  0.66949665     0.27900
H2774       H  0.82591792  0.18101149  0.67977045     0.27900
H2775       H  0.86576620  0.16427210  0.68902480     0.18500
H2776       H  0.92156970  0.24225059  0.67727182     0.18500
C2777       C  0.02261925  0.13076036  0.69861243    -0.07300
C2778       C  0.02511349  0.15750350  0.70386815    -0.18500
C2779       C  0.04952152  0.16962181  0.70220749     0.09900
C2780       C  0.07196637  0.15477667  0.69428463    -0.07300
C2781       C  0.06960623  0.12792108  0.69063458    -0.18500
C2782       C  0.04524302  0.11568280  0.69267771     0.09900
S2783       S  0.05076765  0.20378043  0.71174565    -0.33500
S2784       S  0.04371293  0.08083421  0.68884663    -0.33500
H2785       H  0.07087848  0.07626337  0.68868045     0.27900
H2786       H  0.07534430  0.20291065  0.72863486     0.27900
H2787       H  0.00792319  0.16903327  0.70965776     0.18500
H2788       H  0.08687031  0.11655069  0.68523215     0.18500
C2789       C  0.90451363  0.82828731  0.56788311    -0.07300
C2790       C  0.92177395  0.80716437  0.57075507    -0.18500
C2791       C  0.91255250  0.78168893  0.57180808     0.09900
C2792       C  0.88540043  0.77696935  0.57023537    -0.07300
C2793       C  0.86805034  0.79788548  0.56813383    -0.18500
C2794       C  0.87713812  0.82345064  0.56711579     0.09900
S2795       S  0.93640895  0.75605076  0.57348108    -0.33500
S2796       S  0.85178682  0.84770060  0.06405048    -0.33500
H2797       H  0.82940715  0.83211981  0.05968052     0.27900
H2798       H  0.92176045  0.73868397  0.55286300     0.27900
H2799       H  0.94273335  0.81043631  0.57125309     0.18500
H2800       H  0.84716151  0.79410437  0.56804884     0.18500
C2801       C  0.92872850  0.98774623  0.59368373    -0.07300
C2802       C  0.90423876  0.99508589  0.60775424    -0.18500
C2803       C  0.90202164  0.01064013  0.63811390     0.09900
C2804       C  0.92475260  0.01932346  0.65596000    -0.07300
C2805       C  0.94920882  0.01204937  0.64211535    -0.18500
C2806       C  0.95156524  0.99700837  0.61120830     0.09900
S2807       S  0.86944527  0.01823331  0.65331738    -0.33500
S2808       S  0.98416488  0.98972791  0.59564859    -0.33500
H2809       H  0.99809299  0.00598074  0.61874196     0.27900
H2810       H  0.87637915  0.02111252  0.68911174     0.27900
H2811       H  0.88646424  0.98779063  0.59565339     0.18500
H2812       H  0.96676088  0.01923927  0.65477289     0.18500
C2813       C  0.08456315  0.32336035  0.69487023    -0.07300
C2814       C  0.08561856  0.31306285  0.66087572    -0.18500
C2815       C  0.09442399  0.28784026  0.65532498     0.09900
C2816       C  0.10418183  0.27302751  0.68419254    -0.07300
C2817       C  0.10215713  0.28322193  0.71846219    -0.18500
C2818       C  0.09206644  0.30801273  0.72403403     0.09900
S2819       S  0.09342837  0.27646349  0.61054560    -0.33500
S2820       S  0.09039187  0.31988718  0.76858648    -0.33500
H2821       H  0.10447849  0.34233029  0.76020146     0.27900
H2822       H  0.07781544  0.25486259  0.61910552     0.27900
H2823       H  0.07936625  0.32472188  0.63851223     0.18500
H2824       H  0.10912586  0.27209942  0.74091661     0.18500
C2825       C  0.97288912  0.37553675  0.69770289    -0.07300
C2826       C  0.96892326  0.35030987  0.71103350    -0.18500
C2827       C  0.94466050  0.33765708  0.70789769     0.09900
C2828       C  0.92368641  0.35015913  0.69052827    -0.07300
C2829       C  0.92747441  0.37533343  0.67742226    -0.18500
C2830       C  0.95153488  0.38818014  0.68103196     0.09900
S2831       S  0.94143152  0.30598386  0.72767926    -0.33500
S2832       S  0.95310395  0.42101519  0.66500908    -0.33500
H2833       H  0.96472087  0.43057052  0.69611066     0.27900
H2834       H  0.91496055  0.30872243  0.73740632     0.27900
H2835       H  0.98482522  0.34034110  0.72429848     0.18500
H2836       H  0.91148182  0.38512391  0.66408515     0.18500
C2837       C  0.08613240  0.52458521  0.60068814    -0.07300
C2838       C  0.08692624  0.52965808  0.63745666    -0.18500
C2839       C  0.08445972  0.50982327  0.66320610     0.09900
C2840       C  0.08274170  0.48383653  0.65234294    -0.07300
C2841       C  0.08547962  0.47874134  0.61580209    -0.18500
C2842       C  0.08636212  0.49854256  0.59005053     0.09900
S2843       S  0.08443802  0.51877950  0.70922382    -0.33500
S2844       S  0.08855729  0.48942036  0.54419700    -0.33500
H2845       H  0.10121878  0.51210694  0.53261960     0.27900
H2846       H  0.09400380  0.49510614  0.72226798     0.27900
H2847       H  0.08867090  0.54947375  0.64620260     0.18500
H2848       H  0.08648093  0.45884386  0.60711918     0.18500
C2849       C  0.97699252  0.62936634  0.55565291    -0.07300
C2850       C  0.97096619  0.65114960  0.53453216    -0.18500
C2851       C  0.94812804  0.66544915  0.53979291     0.09900
C2852       C  0.93111829  0.65825566  0.56737859    -0.07300
C2853       C  0.93720660  0.63713836  0.58912210    -0.18500
C2854       C  0.95985115  0.62253584  0.58368986     0.09900
S2855       S  0.93918076  0.69101993  0.00768402    -0.33500
S2856       S  0.96500808  0.59459818  0.61170589    -0.33500
H2857       H  0.94998618  0.60362681  0.64029379     0.27900
H2858       H  0.91176382  0.68842947  0.00687400     0.27900
H2859       H  0.98273303  0.65755284  0.01143504     0.18500
H2860       H  0.92357020  0.63151427  0.60977498     0.18500
C2861       C  0.36634527  0.39196667  0.72748949    -0.07300
C2862       C  0.35153020  0.36948842  0.73352811    -0.18500
C2863       C  0.34012209  0.35571027  0.70546857     0.09900
C2864       C  0.34377443  0.36422690  0.67001115    -0.07300
C2865       C  0.35481196  0.38890797  0.66472359    -0.18500
C2866       C  0.36649039  0.40255342  0.69290159     0.09900
S2867       S  0.32330427  0.32600294  0.71647072    -0.33500
S2868       S  0.38431919  0.43171380  0.68246716    -0.33500
H2869       H  0.38517841  0.44112376  0.71731371     0.27900
H2870       H  0.30761604  0.32573757  0.68584679     0.27900
H2871       H  0.35123574  0.36100698  0.75981866     0.18500
H2872       H  0.35727123  0.39622453  0.63801982     0.18500
C2873       C  0.34469669  0.29271926  0.96675483    -0.07300
C2874       C  0.31961717  0.28734102  0.95310103    -0.18500
C2875       C  0.31596432  0.26809320  0.92743716     0.09900
C2876       C  0.33792035  0.25427838  0.91506780    -0.07300
C2877       C  0.36303649  0.26119548  0.92691113    -0.18500
C2878       C  0.36665583  0.28061916  0.95174604     0.09900
S2879       S  0.28286351  0.26014587  0.91475150    -0.33500
S2880       S  0.40202525  0.28093340  0.47002766    -0.33500
H2881       H  0.39707033  0.30565797  0.48389977     0.27900
H2882       H  0.28761310  0.23388278  0.90771018     0.27900
H2883       H  0.30254590  0.29593640  0.96539586     0.18500
H2884       H  0.38012141  0.25110539  0.91702197     0.18500
C2885       C  0.33261291  0.19567044  0.71043347    -0.07300
C2886       C  0.30877554  0.20585383  0.69751661    -0.18500
C2887       C  0.30843533  0.22548142  0.67180407     0.09900
C2888       C  0.33243193  0.23473000  0.65842190    -0.07300
C2889       C  0.35550779  0.22105531  0.66664481    -0.18500
C2890       C  0.35580592  0.20146037  0.69212875     0.09900
S2891       S  0.27753846  0.24032351  0.66123622    -0.33500
S2892       S  0.38691454  0.18761302  0.70419880    -0.33500
H2893       H  0.37638062  0.16365509  0.71479959     0.27900
H2894       H  0.28087768  0.23756132  0.62451550     0.27900
H2895       H  0.29069217  0.20116473  0.71106074     0.18500
H2896       H  0.37378651  0.22668351  0.65447913     0.18500
C2897       C  0.40934394  0.23734759  0.57665334    -0.07300
C2898       C  0.40810981  0.22660652  0.54276367    -0.18500
C2899       C  0.41655602  0.20148042  0.53653598     0.09900
C2900       C  0.42543956  0.18626556  0.56515103    -0.07300
C2901       C  0.42888566  0.19760495  0.59845392    -0.18500
C2902       C  0.42174067  0.22342531  0.60416065     0.09900
S2903       S  0.41238071  0.18892427  0.49250911    -0.33500
S2904       S  0.42705222  0.23683530  0.64747736    -0.33500
H2905       H  0.43126915  0.26223482  0.63539099     0.27900
H2906       H  0.43797042  0.17905937  0.49049436     0.27900
H2907       H  0.39844927  0.23711636  0.52160995     0.18500
H2908       H  0.43647340  0.18613270  0.62022074     0.18500
C2909       C  0.23269840  0.31823573  0.97069473    -0.07300
C2910       C  0.23777657  0.29423645  0.98693943    -0.18500
C2911       C  0.25387140  0.29079168  0.51787047     0.09900
C2912       C  0.26957051  0.31225045  0.52772243    -0.07300
C2913       C  0.26616830  0.33549936  0.50860062    -0.18500
C2914       C  0.24540172  0.34035764  0.98475881     0.09900
S2915       S  0.25300354  0.26114528  0.54320709    -0.33500
S2916       S  0.24005749  0.37236928  0.96714076    -0.33500
H2917       H  0.23338499  0.36429654  0.93281052     0.27900
H2918       H  0.25843193  0.27298426  0.57587339     0.27900
H2919       H  0.22726199  0.27721057  0.97821176     0.18500
H2920       H  0.27821438  0.35210540  0.51499535     0.18500
C2921       C  0.12534602  0.39670400  0.78136158    -0.07300
C2922       C  0.14362771  0.37656877  0.77796108    -0.18500
C2923       C  0.15406193  0.36399584  0.80793598     0.09900
C2924       C  0.14683319  0.37214229  0.84227469    -0.07300
C2925       C  0.13131517  0.39440844  0.84549437    -0.18500
C2926       C  0.12053872  0.40666128  0.81554570     0.09900
S2927       S  0.17353998  0.33540205  0.80077924    -0.33500
S2928       S  0.09787826  0.43284292  0.82271880    -0.33500
H2929       H  0.09924036  0.44290791  0.78811378     0.27900
H2930       H  0.18546669  0.33513165  0.83432702     0.27900
H2931       H  0.14719661  0.36838291  0.75205173     0.18500
H2932       H  0.12520667  0.40064133  0.87156579     0.18500
C2933       C  0.15851805  0.25365363  0.58246511    -0.07300
C2934       C  0.17459187  0.27571742  0.58514870    -0.18500
C2935       C  0.17213355  0.29639028  0.56135550     0.09900
C2936       C  0.15258480  0.29568746  0.53513654    -0.07300
C2937       C  0.13488372  0.27504612  0.53466915    -0.18500
C2938       C  0.13847693  0.25346051  0.55630966     0.09900
S2939       S  0.19579559  0.32225037  0.56353213    -0.33500
S2940       S  0.11687687  0.22650999  0.54795383    -0.33500
H2941       H  0.13760445  0.20901399  0.54266018     0.27900
H2942       H  0.18153455  0.33977867  0.54248604     0.27900
H2943       H  0.18961885  0.27664372  0.60535652     0.18500
H2944       H  0.12058953  0.27553857  0.01841682     0.18500
C2945       C  0.15729188  0.24734323  0.83850599    -0.07300
C2946       C  0.17705138  0.22846023  0.83659187    -0.18500
C2947       C  0.17502107  0.20774235  0.81288542     0.09900
C2948       C  0.15322152  0.20599560  0.79017584    -0.07300
C2949       C  0.13205933  0.22248157  0.79548792    -0.18500
C2950       C  0.13378421  0.24304819  0.81906390     0.09900
S2951       S  0.20087565  0.18415885  0.81189880    -0.33500
S2952       S  0.10503677  0.26283796  0.82225602    -0.33500
H2953       H  0.11849044  0.28430896  0.80843607     0.27900
H2954       H  0.18746976  0.16610127  0.79081394     0.27900
H2955       H  0.19433302  0.23005239  0.85309043     0.18500
H2956       H  0.11514662  0.22116649  0.77817890     0.18500
C2957       C  0.00149285  0.92558700  0.70386657    -0.07300
C2958       C  0.99760837  0.90142009  0.68770303    -0.18500
C2959       C  0.97572972  0.89645918  0.66675665     0.09900
C2960       C  0.95763046  0.91631975  0.65999423    -0.07300
C2961       C  0.96039957  0.93998278  0.67793558    -0.18500
C2962       C  0.98214677  0.94487659  0.69963770     0.09900
S2963       S  0.97372079  0.86541716  0.64536485    -0.33500
S2964       S  0.98517879  0.97671790  0.71851908    -0.33500
H2965       H  0.01273869  0.97732657  0.71789500     0.27900
H2966       H  0.94623694  0.86523423  0.64278832     0.27900
H2967       H  0.01155602  0.88592232  0.69175183     0.18500
H2968       H  0.94711752  0.95572992  0.67182649     0.18500
C2969       C  0.03915009  0.90890714  0.90643410    -0.07300
C2970       C  0.01744823  0.89247614  0.90516327    -0.18500
C2971       C  0.99546514  0.89666745  0.92648354     0.09900
C2972       C  0.99593188  0.91701456  0.95183551    -0.07300
C2973       C  0.01870750  0.93227556  0.95457827    -0.18500
C2974       C  0.04003463  0.92861498  0.93196647     0.09900
S2975       S  0.96703049  0.87633747  0.91895512    -0.33500
S2976       S  0.06725257  0.95075795  0.93518668    -0.33500
H2977       H  0.08500374  0.93582425  0.91548092     0.27900
H2978       H  0.97675487  0.86211142  0.89017559     0.27900
H2979       H  0.01660458  0.87807959  0.88443773     0.18500
H2980       H  0.01987225  0.94744691  0.97420347     0.18500
C2981       C  0.14730725  0.13012120  0.59350645    -0.07300
C2982       C  0.15436876  0.13922772  0.55973680    -0.18500
C2983       C  0.14477139  0.12751690  0.52881612     0.09900
C2984       C  0.12710825  0.10647482  0.53127211    -0.07300
C2985       C  0.12241948  0.09562042  0.56483896    -0.18500
C2986       C  0.13256357  0.10696970  0.59577124     0.09900
S2987       S  0.15591253  0.14239751  0.98537797    -0.33500
S2988       S  0.12288163  0.09308159  0.63752669    -0.33500
H2989       H  0.14411935  0.10294646  0.65690305     0.27900
H2990       H  0.15093887  0.12078214  0.96396849     0.27900
H2991       H  0.16529971  0.15715351  0.55742650     0.18500
H2992       H  0.10857782  0.07979178  0.56732088     0.18500
C2993       C  0.11244423  0.22912427  0.93815406    -0.07300
C2994       C  0.12602867  0.20917775  0.92133432    -0.18500
C2995       C  0.11559136  0.18432483  0.91922431     0.09900
C2996       C  0.09168995  0.17859653  0.93669055    -0.07300
C2997       C  0.07766467  0.19899997  0.95246270    -0.18500
C2998       C  0.08755195  0.22425055  0.95280780     0.09900
S2999       S  0.13323721  0.16159447  0.89217146    -0.33500
S3000       S  0.07007389  0.24871663  0.47408675    -0.33500
H3001       H  0.08693897  0.26796279  0.97560368     0.27900
H3002       H  0.11047993  0.15168335  0.87607405     0.27900
H3003       H  0.14450545  0.21331924  0.90826027     0.18500
H3004       H  0.05905221  0.19526110  0.96531949     0.18500
C3005       C  0.07756792  0.01807950  0.90552198    -0.07300
C3006       C  0.05416685  0.01246465  0.88767471    -0.18500
C3007       C  0.05357135  0.99729091  0.85695335     0.09900
C3008       C  0.07672660  0.98462799  0.84522327    -0.07300
C3009       C  0.10020548  0.98989307  0.86359553    -0.18500
C3010       C  0.10100234  0.00699885  0.89258222     0.09900
S3011       S  0.02282226  0.99532491  0.83332622    -0.33500
S3012       S  0.13245427  0.01357162  0.91230509    -0.33500
H3013       H  0.12272852  0.02061845  0.94570699     0.27900
H3014       H  0.00948126  0.01502049  0.85147575     0.27900
H3015       H  0.03625225  0.02149168  0.89656322     0.18500
H3016       H  0.11812117  0.98037372  0.85551390     0.18500
C3017       C  0.95708378  0.09061401  0.59094055    -0.07300
C3018       C  0.95908741  0.06755848  0.57145650    -0.18500
C3019       C  0.97975917  0.06346556  0.54759267     0.09900
C3020       C  0.99938124  0.08259649  0.54352239    -0.07300
C3021       C  0.99608979  0.10638330  0.56107649    -0.18500
C3022       C  0.97504518  0.11065663  0.58419466     0.09900
S3023       S  0.97678840  0.03910239  0.01911109    -0.33500
S3024       S  0.97258373  0.14087266  0.60781159    -0.33500
H3025       H  0.99307449  0.15370293  0.59002968     0.27900
H3026       H  0.00278875  0.03054209  0.02313395     0.27900
H3027       H  0.94570005  0.05177178  0.57713413     0.18500
H3028       H  0.01010917  0.12179650  0.55669288     0.18500
C3029       C  0.03930735  0.09442855  0.84245018    -0.07300
C3030       C  0.01628701  0.10874746  0.84664668    -0.18500
C3031       C  0.99380113  0.10332146  0.82699215     0.09900
C3032       C  0.99491902  0.08506167  0.79904533    -0.07300
C3033       C  0.01876050  0.07193408  0.79334520    -0.18500
C3034       C  0.04060772  0.07605614  0.81510413     0.09900
S3035       S  0.96411661  0.11898709  0.84148828    -0.33500
S3036       S  0.06926229  0.05638174  0.80807606    -0.33500
H3037       H  0.08653328  0.07183797  0.82787071     0.27900
H3038       H  0.94881650  0.09638346  0.83905412     0.27900
H3039       H  0.01468283  0.12186575  0.86880271     0.18500
H3040       H  0.02048882  0.05825010  0.77184734     0.18500
C3041       C  0.52411688  0.12235179  0.55554923    -0.07300
C3042       C  0.52687877  0.14860202  0.54693861    -0.18500
C3043       C  0.55107333  0.16102481  0.54844661     0.09900
C3044       C  0.57357935  0.14701828  0.55918568    -0.07300
C3045       C  0.57104915  0.12050697  0.56697649    -0.18500
C3046       C  0.54655835  0.10811687  0.56563717     0.09900
S3047       S  0.55215172  0.19845334  0.04047024    -0.33500
S3048       S  0.54538302  0.07407017  0.57561111    -0.33500
H3049       H  0.52800518  0.07703865  0.60416178     0.27900
H3050       H  0.57712370  0.19801363  0.02480489     0.27900
H3051       H  0.50986013  0.16382032  0.04218693     0.18500
H3052       H  0.58803927  0.10958409  0.57547603     0.18500
C3053       C  0.66019857  0.19755528  0.95903281    -0.07300
C3054       C  0.68329782  0.20779436  0.94368461    -0.18500
C3055       C  0.68230125  0.22569070  0.91556481     0.09900
C3056       C  0.65778361  0.23320131  0.90193230    -0.07300
C3057       C  0.63523253  0.22009079  0.91400797    -0.18500
C3058       C  0.63623779  0.20215240  0.94183016     0.09900
S3059       S  0.71243743  0.24042712  0.90111835    -0.33500
S3060       S  0.60584501  0.18878226  0.95773382    -0.33500
H3061       H  0.61662232  0.16452936  0.96629495     0.27900
H3062       H  0.70260309  0.26583158  0.90098283     0.27900
H3063       H  0.70196313  0.20438157  0.95657097     0.18500
H3064       H  0.61635019  0.22487650  0.90290907     0.18500
C3065       C  0.64991804  0.26245666  0.65368728    -0.07300
C3066       C  0.67049619  0.27978565  0.66055634    -0.18500
C3067       C  0.66751103  0.29905630  0.68631950     0.09900
C3068       C  0.64430115  0.29989278  0.70648006    -0.07300
C3069       C  0.62240428  0.28668114  0.69424477    -0.18500
C3070       C  0.62487651  0.26766399  0.66855356     0.09900
S3071       S  0.69350061  0.32201898  0.69260960    -0.33500
S3072       S  0.59566833  0.24989951  0.65722942    -0.33500
H3073       H  0.57763391  0.26888992  0.66796178     0.27900
H3074       H  0.67749733  0.34128112  0.70735404     0.27900
H3075       H  0.68902720  0.27781592  0.64683891     0.18500
H3076       H  0.60408191  0.28877372  0.70834977     0.18500
C3077       C  0.62650708  0.12214193  0.73591600    -0.07300
C3078       C  0.62616014  0.10632128  0.70559754    -0.18500
C3079       C  0.63681115  0.11479907  0.67290373     0.09900
C3080       C  0.64830860  0.13957664  0.67016092    -0.07300
C3081       C  0.65128502  0.15402970  0.70144672    -0.18500
C3082       C  0.64062696  0.14564486  0.73396081     0.09900
S3083       S  0.63214827  0.09568579  0.63355529    -0.33500
S3084       S  0.64203928  0.16767045  0.77078541    -0.33500
H3085       H  0.63771097  0.14884746  0.79712680     0.27900
H3086       H  0.61897789  0.07495041  0.64998723     0.27900
H3087       H  0.61479005  0.08862553  0.70646885     0.18500
H3088       H  0.65952096  0.17333985  0.69977399     0.18500
C3089       C  0.92807012  0.15317848  0.94315048    -0.07300
C3090       C  0.95027702  0.16472820  0.92736934    -0.18500
C3091       C  0.97504436  0.15319693  0.92946144     0.09900
C3092       C  0.97766489  0.12928433  0.94675067    -0.07300
C3093       C  0.95596675  0.11782522  0.96313562    -0.18500
C3094       C  0.93125995  0.12965417  0.96218775     0.09900
S3095       S  0.00325754  0.16895889  0.91003974    -0.33500
S3096       S  0.90401283  0.11373232  0.48033913    -0.33500
H3097       H  0.91825916  0.09267113  0.49402779     0.27900
H3098       H  0.99014053  0.19119311  0.89788853     0.27900
H3099       H  0.94824646  0.18274764  0.91297279     0.18500
H3100       H  0.95837588  0.10012631  0.47319794     0.18500
C3101       C  0.85312154  0.12772036  0.84812021    -0.07300
C3102       C  0.84157480  0.13364764  0.81528157    -0.18500
C3103       C  0.85111384  0.12301187  0.78344013     0.09900
C3104       C  0.87304483  0.10628831  0.78392723    -0.07300
C3105       C  0.88266175  0.09827837  0.81708182    -0.18500
C3106       C  0.87295597  0.10862344  0.84886563     0.09900
S3107       S  0.83684856  0.13432017  0.74268604    -0.33500
S3108       S  0.88947906  0.09967130  0.88923603    -0.33500
H3109       H  0.86824711  0.10530516  0.91161249     0.27900
H3110       H  0.84451123  0.11290670  0.72241487     0.27900
H3111       H  0.82679760  0.14865629  0.81398290     0.18500
H3112       H  0.89979183  0.08591678  0.81811048     0.18500
C3113       C  0.83653705  0.24789298  0.58493636    -0.07300
C3114       C  0.86124950  0.24423779  0.56913499    -0.18500
C3115       C  0.86617292  0.22323675  0.54702036     0.09900
C3116       C  0.84582915  0.20582420  0.53917516    -0.07300
C3117       C  0.82208794  0.20774543  0.55786892    -0.18500
C3118       C  0.81708949  0.22869430  0.58028374     0.09900
S3119       S  0.89773006  0.22143197  0.52565914    -0.33500
S3120       S  0.78475546  0.23097577  0.59923501    -0.33500
H3121       H  0.78324340  0.25809411  0.59681983     0.27900
H3122       H  0.89633337  0.19482962  0.51829628     0.27900
H3123       H  0.87699500  0.25785948  0.57400678     0.18500
H3124       H  0.80607471  0.19480952  0.55127079     0.18500
C3125       C  0.83704920  0.25085449  0.83330281    -0.07300
C3126       C  0.82086542  0.27279901  0.83623832    -0.18500
C3127       C  0.82273113  0.29342171  0.81211722     0.09900
C3128       C  0.84210205  0.29303347  0.78551646    -0.07300
C3129       C  0.85940190  0.27213944  0.78412397    -0.18500
C3130       C  0.85619829  0.25055627  0.80595170     0.09900
S3131       S  0.79891618  0.31902044  0.81516675    -0.33500
S3132       S  0.87697854  0.22334268  0.79602880    -0.33500
H3133       H  0.85588272  0.20582174  0.79399334     0.27900
H3134       H  0.81230284  0.33671833  0.79330146     0.27900
H3135       H  0.80633093  0.27375964  0.85709306     0.18500
H3136       H  0.87352097  0.27113235  0.76269662     0.18500
C3137       C  0.76876229  0.18815055  0.97870562    -0.07300
C3138       C  0.76171304  0.16556633  0.99754047    -0.18500
C3139       C  0.74396416  0.16395640  0.52195115     0.09900
C3140       C  0.73245420  0.18721503  0.53416138    -0.07300
C3141       C  0.73991937  0.21033357  0.51712678    -0.18500
C3142       C  0.75777733  0.21191635  0.99069866     0.09900
S3143       S  0.73795202  0.13312628  0.54295610    -0.33500
S3144       S  0.76525350  0.24292905  0.97134769    -0.33500
H3145       H  0.76150390  0.23460972  0.93643622     0.27900
H3146       H  0.73355019  0.14339071  0.57686075     0.27900
H3147       H  0.77038526  0.14723894  0.99022273     0.18500
H3148       H  0.73107634  0.22837459  0.52534175     0.18500
C3149       C  0.62503013  0.38407320  0.97827736    -0.07300
C3150       C  0.62316089  0.39608518  0.94501546    -0.18500
C3151       C  0.63488709  0.38532638  0.91484666     0.09900
C3152       C  0.64778173  0.36109620  0.91732611    -0.07300
C3153       C  0.65236751  0.35090325  0.95143165    -0.18500
C3154       C  0.64158731  0.36236338  0.98179112     0.09900
S3155       S  0.62933033  0.40174720  0.87351790    -0.33500
S3156       S  0.64984947  0.34927674  0.52675827    -0.33500
H3157       H  0.64726552  0.37224960  0.54616393     0.27900
H3158       H  0.65530336  0.39858226  0.86182088     0.27900
H3159       H  0.61050014  0.41276167  0.94191345     0.18500
H3160       H  0.66256976  0.33263883  0.95423354     0.18500
C3161       C  0.46268100  0.41034854  0.90737792    -0.07300
C3162       C  0.48758492  0.39974795  0.90232717    -0.18500
C3163       C  0.50889379  0.40693454  0.92328090     0.09900
C3164       C  0.50490217  0.42329911  0.95288504    -0.07300
C3165       C  0.47942249  0.43286704  0.95909369    -0.18500
C3166       C  0.45855967  0.42714259  0.93600426     0.09900
S3167       S  0.54111571  0.39659772  0.90908648    -0.33500
S3168       S  0.42687024  0.44192308  0.94208719    -0.33500
H3169       H  0.43374421  0.45700464  0.97155175     0.27900
H3170       H  0.53261169  0.37480839  0.89018418     0.27900
H3171       H  0.49107423  0.38808991  0.87915345     0.18500
H3172       H  0.47582586  0.44484336  0.98198357     0.18500
C3173       C  0.53594846  0.40435189  0.66272871    -0.07300
C3174       C  0.53699712  0.42703835  0.68304311    -0.18500
C3175       C  0.51586651  0.43486114  0.70391516     0.09900
C3176       C  0.49310122  0.41930256  0.70536054    -0.07300
C3177       C  0.49309699  0.39552555  0.68722137    -0.18500
C3178       C  0.51447822  0.38767628  0.66699896     0.09900
S3179       S  0.51858390  0.46573181  0.72570468    -0.33500
S3180       S  0.51243330  0.35713345  0.64462390    -0.33500
H3181       H  0.53954098  0.35240182  0.64614607     0.27900
H3182       H  0.49214974  0.47256182  0.72076254     0.27900
H3183       H  0.55317781  0.44029205  0.67957456     0.18500
H3184       H  0.47654103  0.38247391  0.68931751     0.18500
C3185       C  0.59900118  0.26612200  0.54690592    -0.07300
C3186       C  0.57793453  0.27199290  0.56967652    -0.18500
C3187       C  0.56665410  0.29656678  0.57014540     0.09900
C3188       C  0.57653384  0.31574688  0.54738052    -0.07300
C3189       C  0.59489058  0.30904982  0.52140615    -0.18500
C3190       C  0.60586854  0.28431531  0.52038573     0.09900
S3191       S  0.54107267  0.30260051  0.60181077    -0.33500
S3192       S  0.62521447  0.27707800  0.98566525    -0.33500
H3193       H  0.61978475  0.25194528  0.48045797     0.27900
H3194       H  0.52812674  0.32157069  0.58166034     0.27900
H3195       H  0.57105091  0.25784366  0.58872135     0.18500
H3196       H  0.60109953  0.32341245  0.50216773     0.18500
C3197       C  0.47050034  0.37755135  0.55196203    -0.07300
C3198       C  0.46038800  0.37842228  0.58652119    -0.18500
C3199       C  0.43615891  0.36750801  0.59514667     0.09900
C3200       C  0.42107522  0.35523897  0.56866575    -0.07300
C3201       C  0.43062635  0.35507932  0.53379296    -0.18500
C3202       C  0.45510882  0.36596125  0.52508226     0.09900
S3203       S  0.42541818  0.37080331  0.64031054    -0.33500
S3204       S  0.46260496  0.36522661  0.97891325    -0.33500
H3205       H  0.43880069  0.35603070  0.96498177     0.27900
H3206       H  0.39934228  0.37553056  0.63074316     0.27900
H3207       H  0.47148951  0.38771383  0.60732402     0.18500
H3208       H  0.41908670  0.34580074  0.51343538     0.18500
C3209       C  0.62947728  0.60487844  0.77818674    -0.07300
C3210       C  0.62068836  0.59649965  0.81159634    -0.18500
C3211       C  0.63013921  0.60760142  0.84294572     0.09900
C3212       C  0.64885359  0.62771758  0.84129223    -0.07300
C3213       C  0.65973503  0.63410034  0.80820682    -0.18500
C3214       C  0.65051460  0.62267289  0.77681847     0.09900
S3215       S  0.61453829  0.59821695  0.88383432    -0.33500
S3216       S  0.66390535  0.63417320  0.73560321    -0.33500
H3217       H  0.65763430  0.61191183  0.71616216     0.27900
H3218       H  0.63582989  0.60470568  0.90566704     0.27900
H3219       H  0.60423973  0.58323734  0.81316048     0.18500
H3220       H  0.67376273  0.64981971  0.80643060     0.18500
C3221       C  0.50831395  0.57993404  0.79217573    -0.07300
C3222       C  0.51312510  0.60028537  0.81584157    -0.18500
C3223       C  0.49412835  0.60871715  0.83924798     0.09900
C3224       C  0.47031803  0.59527422  0.84194303    -0.07300
C3225       C  0.46437635  0.57599058  0.81725302    -0.18500
C3226       C  0.48276445  0.56894471  0.79119321     0.09900
S3227       S  0.50106980  0.63579041  0.86770321    -0.33500
S3228       S  0.47305587  0.54634387  0.75730558    -0.33500
H3229       H  0.44647171  0.54467263  0.76695421     0.27900
H3230       H  0.52822062  0.63711584  0.86146897     0.27900
H3231       H  0.53173452  0.61032287  0.81563837     0.18500
H3232       H  0.44606157  0.56552034  0.81968295     0.18500
C3233       C  0.54858505  0.58000972  0.58561006    -0.07300
C3234       C  0.53658512  0.55637999  0.57548445    -0.18500
C3235       C  0.51452433  0.55590279  0.55361570     0.09900
C3236       C  0.50501461  0.57938460  0.54033613    -0.07300
C3237       C  0.51960221  0.60229800  0.54630457    -0.18500
C3238       C  0.54155921  0.60271182  0.56788101     0.09900
S3239       S  0.49773410  0.52555738  0.54760291    -0.33500
S3240       S  0.55745814  0.63335569  0.57525788    -0.33500
H3241       H  0.58274569  0.62260208  0.57701191     0.27900
H3242       H  0.47237061  0.53604351  0.54993040     0.27900
H3243       H  0.54180221  0.53858422  0.58885736     0.18500
H3244       H  0.51350993  0.62053878  0.53482778     0.18500
C3245       C  0.58708557  0.51489212  0.65376326    -0.07300
C3246       C  0.58761676  0.52000736  0.61696539    -0.18500
C3247       C  0.58639275  0.50024893  0.59170972     0.09900
C3248       C  0.58644905  0.47433212  0.60303425    -0.07300
C3249       C  0.58899844  0.46919304  0.63969602    -0.18500
C3250       C  0.58856558  0.48902018  0.66509479     0.09900
S3251       S  0.58458121  0.50940072  0.54567861    -0.33500
S3252       S  0.59025976  0.48010128  0.71117476    -0.33500
H3253       H  0.60087375  0.50359393  0.72312673     0.27900
H3254       H  0.59716431  0.48718472  0.53275277     0.27900
H3255       H  0.58789526  0.53977226  0.60754009     0.18500
H3256       H  0.59018041  0.44936254  0.64885276     0.18500
C3257       C  0.85444509  0.62907169  0.65698831    -0.07300
C3258       C  0.87280896  0.60897192  0.65448716    -0.18500
C3259       C  0.88308817  0.59705748  0.68499652     0.09900
C3260       C  0.87507862  0.60541366  0.71892031    -0.07300
C3261       C  0.85423304  0.62303084  0.72110558    -0.18500
C3262       C  0.84396186  0.63500209  0.69052195     0.09900
S3263       S  0.90891729  0.57368490  0.67921160    -0.33500
S3264       S  0.81983103  0.66030370  0.69463881    -0.33500
H3265       H  0.81529810  0.65705733  0.73110762     0.27900
H3266       H  0.90722900  0.56287743  0.71335234     0.27900
H3267       H  0.88125938  0.60442972  0.62895308     0.18500
H3268       H  0.84814028  0.62967171  0.74688566     0.18500
C3269       C  0.99723088  0.58814765  0.70399465    -0.07300
C3270       C  0.00040881  0.61221867  0.68677806    -0.18500
C3271       C  0.02187737  0.61713301  0.66472599     0.09900
C3272       C  0.04074061  0.59771194  0.65957913    -0.07300
C3273       C  0.03867497  0.57467276  0.67931694    -0.18500
C3274       C  0.01685964  0.56927784  0.70023677     0.09900
S3275       S  0.02277718  0.64738569  0.64096879    -0.33500
S3276       S  0.01416045  0.53706669  0.71853484    -0.33500
H3277       H  0.98674450  0.53553220  0.71497183     0.27900
H3278       H  0.05022034  0.64963141  0.64244532     0.27900
H3279       H  0.98611575  0.62743349  0.69051316     0.18500
H3280       H  0.05231756  0.55926469  0.67480016     0.18500
C3281       C  0.95989666  0.58686841  0.91019939    -0.07300
C3282       C  0.96367565  0.56300548  0.92767963    -0.18500
C3283       C  0.98564442  0.55849254  0.94926925     0.09900
C3284       C  0.00437732  0.57833343  0.95402020    -0.07300
C3285       C  0.99975143  0.60253233  0.93782922    -0.18500
C3286       C  0.97767798  0.60708358  0.91682075     0.09900
S3287       S  0.98978639  0.52639284  0.96723249    -0.33500
S3288       S  0.97484817  0.63825689  0.89558128    -0.33500
H3289       H  0.94729610  0.63845634  0.89555981     0.27900
H3290       H  0.01734702  0.52673244  0.96631175     0.27900
H3291       H  0.95084382  0.54690501  0.92149726     0.18500
H3292       H  0.01331191  0.61837808  0.94178120     0.18500
C3293       C  0.87335186  0.39605441  0.53071699    -0.07300
C3294       C  0.85357546  0.37733433  0.52694793    -0.18500
C3295       C  0.84203847  0.36540178  0.55671576     0.09900
C3296       C  0.84962939  0.37284865  0.59123265    -0.07300
C3297       C  0.86674497  0.39396022  0.59478592    -0.18500
C3298       C  0.87878184  0.40541128  0.56509978     0.09900
S3299       S  0.82068768  0.33815312  0.54910915    -0.33500
S3300       S  0.90371730  0.42945878  0.57305979    -0.33500
H3301       H  0.90363763  0.43991909  0.53863368     0.27900
H3302       H  0.80879258  0.33837138  0.58268233     0.27900
H3303       H  0.84949834  0.36958753  0.50091800     0.18500
H3304       H  0.87321083  0.39956535  0.62097527     0.18500
C3305       C  0.99762734  0.42107224  0.54505510    -0.07300
C3306       C  0.99818925  0.39792927  0.56491798    -0.18500
C3307       C  0.01928041  0.39177909  0.58683216     0.09900
C3308       C  0.04018037  0.40933740  0.59015709    -0.07300
C3309       C  0.04056672  0.43140568  0.56831438    -0.18500
C3310       C  0.01941565  0.43781398  0.54655652     0.09900
S3311       S  0.01715230  0.36262743  0.61305578    -0.33500
S3312       S  0.02042408  0.46863664  0.52403565    -0.33500
H3313       H  0.99340035  0.47350464  0.52722533     0.27900
H3314       H  0.04437049  0.35876912  0.61510804     0.27900
H3315       H  0.98218021  0.38418492  0.56318658     0.18500
H3316       H  0.05619210  0.44542598  0.57108979     0.18500
C3317       C  0.95718584  0.41145462  0.83991395    -0.07300
C3318       C  0.95655958  0.43365400  0.81818066    -0.18500
C3319       C  0.97710999  0.43952332  0.79465766     0.09900
C3320       C  0.99925691  0.42313740  0.79312428    -0.07300
C3321       C  0.99883009  0.40011089  0.81332253    -0.18500
C3322       C  0.97795360  0.39389277  0.83573803     0.09900
S3323       S  0.97450392  0.46886367  0.76902225    -0.33500
S3324       S  0.98034289  0.36457491  0.86160157    -0.33500
H3325       H  0.95315921  0.36085739  0.86489205     0.27900
H3326       H  0.00101920  0.47579677  0.77302777     0.27900
H3327       H  0.94111422  0.44775755  0.82196101     0.18500
H3328       H  0.01487952  0.38649140  0.81162617     0.18500
C3329       C  0.90965550  0.32463626  0.94448589    -0.07300
C3330       C  0.90933209  0.31414177  0.91049582    -0.18500
C3331       C  0.90084875  0.28867335  0.90484694     0.09900
C3332       C  0.89181286  0.27368467  0.93393047    -0.07300
C3333       C  0.89300193  0.28415057  0.96805495    -0.18500
C3334       C  0.90192929  0.30927923  0.97362913     0.09900
S3335       S  0.90087939  0.27627541  0.86029404    -0.33500
S3336       S  0.90165338  0.32111706  0.01833099    -0.33500
H3337       H  0.88951930  0.34435087  0.00870277     0.27900
H3338       H  0.90839556  0.29926704  0.84300857     0.27900
H3339       H  0.91576286  0.32600262  0.88844671     0.18500
H3340       H  0.88611041  0.27296278  0.99052111     0.18500
C3341       C  0.92332847  0.48401097  0.90285115    -0.07300
C3342       C  0.94759958  0.49093753  0.88797351    -0.18500
C3343       C  0.94954138  0.50600112  0.85700580     0.09900
C3344       C  0.92651505  0.51609208  0.84097068    -0.07300
C3345       C  0.90216789  0.50900417  0.85587743    -0.18500
C3346       C  0.90033581  0.49306848  0.88607243     0.09900
S3347       S  0.98188769  0.51221594  0.83944373    -0.33500
S3348       S  0.86804346  0.48577927  0.90272252    -0.33500
H3349       H  0.87583272  0.48199691  0.93806710     0.27900
H3350       H  0.99596478  0.49549183  0.86187301     0.27900
H3351       H  0.96532670  0.48346236  0.89985994     0.18500
H3352       H  0.88430908  0.51692439  0.84474769     0.18500
C3353       C  0.02301415  0.37446622  0.94750509    -0.07300
C3354       C  0.03014641  0.35392092  0.97018123    -0.18500
C3355       C  0.05482916  0.34220466  0.96795982     0.09900
C3356       C  0.07287858  0.35110280  0.94263724    -0.07300
C3357       C  0.06617935  0.37157858  0.92016935    -0.18500
C3358       C  0.04152807  0.38335350  0.92201426     0.09900
S3359       S  0.06377167  0.31697933  0.99879439    -0.33500
S3360       S  0.03622436  0.40974030  0.39038273    -0.33500
H3361       H  0.05554648  0.40399317  0.36508045     0.27900
H3362       H  0.03884122  0.31381845  0.01412568     0.27900
H3363       H  0.01649309  0.34717381  0.99011502     0.18500
H3364       H  0.08183773  0.37824143  0.39755024     0.18500
C3365       C  0.02417411  0.63112515  0.80651459    -0.07300
C3366       C  0.02817776  0.65653150  0.79427395    -0.18500
C3367       C  0.05287507  0.66812175  0.79537911     0.09900
C3368       C  0.07436469  0.65401449  0.80890306    -0.07300
C3369       C  0.07058294  0.62856386  0.82055997    -0.18500
C3370       C  0.04581675  0.61712810  0.82025100     0.09900
S3371       S  0.05552593  0.70073279  0.77846417    -0.33500
S3372       S  0.04364228  0.58462715  0.83745287    -0.33500
H3373       H  0.02610691  0.59162575  0.86452769     0.27900
H3374       H  0.08187598  0.69897269  0.76819937     0.27900
H3375       H  0.01194289  0.66750355  0.78344722     0.18500
H3376       H  0.08689187  0.61782432  0.83147285     0.18500
C3377       C  0.12902830  0.61318659  0.97270029    -0.07300
C3378       C  0.12597553  0.60069469  0.93999075    -0.18500
C3379       C  0.13737465  0.61064460  0.90884540     0.09900
C3380       C  0.15120473  0.63434141  0.90975368    -0.07300
C3381       C  0.15681038  0.64508831  0.94306386    -0.18500
C3382       C  0.14648434  0.63440180  0.97446344     0.09900
S3383       S  0.13052761  0.59419790  0.86800848    -0.33500
S3384       S  0.15325954  0.64996123  0.51211033    -0.33500
H3385       H  0.14992268  0.62783818  0.53334573     0.27900
H3386       H  0.15320875  0.60287382  0.85049368     0.27900
H3387       H  0.11264563  0.58441184  0.93808795     0.18500
H3388       H  0.16729020  0.66331435  0.94437561     0.18500
C3389       C  0.10680619  0.77331477  0.80872009    -0.07300
C3390       C  0.10194144  0.78786813  0.83944149    -0.18500
C3391       C  0.09154745  0.81284555  0.83762366     0.09900
C3392       C  0.08555008  0.82367877  0.80436979    -0.07300
C3393       C  0.08934244  0.80887913  0.77370369    -0.18500
C3394       C  0.09995310  0.78390698  0.77546021     0.09900
S3395       S  0.08668588  0.83000612  0.87855300    -0.33500
S3396       S  0.10434060  0.76678753  0.73442859    -0.33500
H3397       H  0.09930256  0.74216246  0.74877928     0.27900
H3398       H  0.06472174  0.84411118  0.86699823     0.27900
H3399       H  0.10709341  0.78008686  0.86514814     0.18500
H3400       H  0.08476514  0.81717393  0.74804759     0.18500
C3401       C  0.35380669  0.63212325  0.59027140    -0.07300
C3402       C  0.36859390  0.60939440  0.59337768    -0.18500
C3403       C  0.37995259  0.59774090  0.56344616     0.09900
C3404       C  0.37659838  0.60904275  0.52949523    -0.07300
C3405       C  0.35843059  0.62928919  0.52594529    -0.18500
C3406       C  0.34717322  0.64098300  0.55595520     0.09900
S3407       S  0.40131097  0.57016484  0.56919410    -0.33500
S3408       S  0.32712032  0.66925926  0.54925517    -0.33500
H3409       H  0.31488761  0.66835872  0.58260218     0.27900
H3410       H  0.39809408  0.56755351  0.60600527     0.27900
H3411       H  0.37375258  0.60252494  0.61957268     0.18500
H3412       H  0.35546404  0.63813821  0.50021762     0.18500
C3413       C  0.42815501  0.64646930  0.69225837    -0.07300
C3414       C  0.43254514  0.62347480  0.67357174    -0.18500
C3415       C  0.45718135  0.61136209  0.67379152     0.09900
C3416       C  0.47783864  0.62184671  0.69445534    -0.07300
C3417       C  0.47294295  0.64476786  0.71351627    -0.18500
C3418       C  0.44859636  0.65722119  0.71232961     0.09900
S3419       S  0.46079859  0.58305032  0.64664379    -0.33500
S3420       S  0.44356234  0.68670315  0.73699718    -0.33500
H3421       H  0.46849758  0.68776051  0.75278093     0.27900
H3422       H  0.48183125  0.59356765  0.62716872     0.27900
H3423       H  0.41702084  0.61558932  0.65725210     0.18500
H3424       H  0.48836471  0.65323341  0.72934928     0.18500
C3425       C  0.26980140  0.69009435  0.71653237    -0.07300
C3426       C  0.26145589  0.66642351  0.73163487    -0.18500
C3427       C  0.24405196  0.66522904  0.76043452     0.09900
C3428       C  0.23314164  0.68814690  0.77440277    -0.07300
C3429       C  0.24092767  0.71182586  0.75907420    -0.18500
C3430       C  0.25892042  0.71316146  0.73079616     0.09900
S3431       S  0.23763107  0.63373624  0.77926529    -0.33500
S3432       S  0.26852286  0.74521632  0.71703470    -0.33500
H3433       H  0.26807348  0.73993855  0.68068266     0.27900
H3434       H  0.23449690  0.64268099  0.81412638     0.27900
H3435       H  0.26981425  0.64845715  0.72226455     0.18500
H3436       H  0.23243259  0.72966303  0.76866586     0.18500
C3437       C  0.40171821  0.77036295  0.68898929    -0.07300
C3438       C  0.41159382  0.78289046  0.65861219    -0.18500
C3439       C  0.42129294  0.80822382  0.65991533     0.09900
C3440       C  0.42034864  0.82190137  0.69214080    -0.07300
C3441       C  0.41211282  0.80866908  0.72293539    -0.18500
C3442       C  0.40329104  0.78308665  0.72182033     0.09900
S3443       S  0.43476476  0.82168776  0.61974927    -0.33500
S3444       S  0.39447828  0.76780859  0.76320195    -0.33500
H3445       H  0.40188336  0.74272231  0.75293112     0.27900
H3446       H  0.45589181  0.83403981  0.63670090     0.27900
H3447       H  0.41099506  0.77322461  0.63331226     0.18500
H3448       H  0.41202396  0.81844860  0.74823209     0.18500
C3449       C  0.07620637  0.85266093  0.56136476    -0.07300
C3450       C  0.05447744  0.83602856  0.56009039    -0.18500
C3451       C  0.02904065  0.84567968  0.55669152     0.09900
C3452       C  0.02511777  0.87266492  0.55483039    -0.07300
C3453       C  0.04696527  0.88930082  0.55564808    -0.18500
C3454       C  0.07252054  0.87953268  0.55859793     0.09900
S3455       S  0.00250897  0.82261889  0.55643971    -0.33500
S3456       S  0.09778400  0.90235380  0.04812749    -0.33500
H3457       H  0.08315229  0.92461963  0.03987712     0.27900
H3458       H  0.98518630  0.83809175  0.57596209     0.27900
H3459       H  0.05735248  0.81531724  0.56256916     0.18500
H3460       H  0.04134319  0.91031974  0.04524781     0.18500
C3461       C  0.15151893  0.86578679  0.66473806    -0.07300
C3462       C  0.13870549  0.88944530  0.65843520    -0.18500
C3463       C  0.12669814  0.90316144  0.68623594     0.09900
C3464       C  0.12822730  0.89364950  0.72120568    -0.07300
C3465       C  0.14419331  0.87211618  0.72804009    -0.18500
C3466       C  0.15584001  0.85816468  0.70035956     0.09900
S3467       S  0.10659003  0.93101839  0.67663510    -0.33500
S3468       S  0.17383318  0.82934297  0.71201576    -0.33500
H3469       H  0.18881629  0.82866781  0.68077314     0.27900
H3470       H  0.11095620  0.93144982  0.63988951     0.27900
H3471       H  0.13531558  0.89553257  0.63138702     0.18500
H3472       H  0.14525813  0.86441170  0.75473210     0.18500
C3473       C  0.16032387  0.69579095  0.70324745    -0.07300
C3474       C  0.18467947  0.70314436  0.68858010    -0.18500
C3475       C  0.18635758  0.72341527  0.66385959     0.09900
C3476       C  0.16321452  0.73597216  0.65318905    -0.07300
C3477       C  0.13895104  0.72472893  0.66261653    -0.18500
C3478       C  0.13735303  0.70443070  0.68680601     0.09900
S3479       S  0.21825374  0.73369716  0.64947290    -0.33500
S3480       S  0.10534170  0.69312071  0.69963602    -0.33500
H3481       H  0.11392687  0.66861423  0.71093610     0.27900
H3482       H  0.21362056  0.76004265  0.65616444     0.27900
H3483       H  0.20260174  0.69590183  0.70038807     0.18500
H3484       H  0.12083963  0.73253714  0.65224857     0.18500
C3485       C  0.14972941  0.79576165  0.95593472    -0.07300
C3486       C  0.17234161  0.79754883  0.93493419    -0.18500
C3487       C  0.17723120  0.77911219  0.90866747     0.09900
C3488       C  0.15979999  0.75805633  0.90498678    -0.07300
C3489       C  0.13569973  0.75860154  0.92299021    -0.18500
C3490       C  0.13002255  0.77804885  0.94689771     0.09900
S3491       S  0.20617080  0.78287248  0.88190770    -0.33500
S3492       S  0.09845143  0.77780118  0.96845237    -0.33500
H3493       H  0.10232902  0.80375635  0.48713391     0.27900
H3494       H  0.21258366  0.75641364  0.88179907     0.27900
H3495       H  0.18740662  0.81156000  0.94138189     0.18500
H3496       H  0.12092766  0.74395169  0.91816265     0.18500
C3497       C  0.09402093  0.73637075  0.56327558    -0.07300
C3498       C  0.09954747  0.72377828  0.53133316    -0.18500
C3499       C  0.09077274  0.69873018  0.52501571     0.09900
C3500       C  0.07777356  0.68508191  0.55216869    -0.07300
C3501       C  0.07024577  0.69819203  0.58295898    -0.18500
C3502       C  0.07750854  0.72410091  0.58821007     0.09900
S3503       S  0.09873572  0.68528008  0.98287691    -0.33500
S3504       S  0.06694280  0.73977211  0.62813144    -0.33500
H3505       H  0.06152728  0.76349012  0.61131147     0.27900
H3506       H  0.07343590  0.67302396  0.47864015     0.27900
H3507       H  0.11211833  0.73300278  0.51189711     0.18500
H3508       H  0.05918740  0.68810644  0.60321423     0.18500
C3509       C  0.42759156  0.85658516  0.92038668    -0.07300
C3510       C  0.44826733  0.84842956  0.89824246    -0.18500
C3511       C  0.47335808  0.85932767  0.90033525     0.09900
C3512       C  0.47837463  0.87882629  0.92528630    -0.07300
C3513       C  0.45792560  0.88742737  0.94705595    -0.18500
C3514       C  0.43266413  0.87675636  0.94478451     0.09900
S3515       S  0.49677923  0.84857783  0.36984106    -0.33500
S3516       S  0.40809940  0.88994086  0.97373356    -0.33500
H3517       H  0.38905847  0.89218393  0.94704057     0.27900
H3518       H  0.51110503  0.87182421  0.36835742     0.27900
H3519       H  0.44503221  0.83316093  0.87918344     0.18500
H3520       H  0.46183393  0.90224622  0.96658022     0.18500
C3521       C  0.37517566  0.89481369  0.76962372    -0.07300
C3522       C  0.37587483  0.90596247  0.80347844    -0.18500
C3523       C  0.36359283  0.89402311  0.83267710     0.09900
C3524       C  0.35076290  0.86993054  0.82807001    -0.07300
C3525       C  0.34648723  0.86127355  0.79326832    -0.18500
C3526       C  0.35816068  0.87359171  0.76410383     0.09900
S3527       S  0.36760554  0.90823413  0.87591171    -0.33500
S3528       S  0.35395017  0.85867896  0.72151267    -0.33500
H3529       H  0.35010899  0.88235320  0.70376661     0.27900
H3530       H  0.37880655  0.93171291  0.86449959     0.27900
H3531       H  0.38841640  0.92257807  0.80773230     0.18500
H3532       H  0.33599534  0.84331215  0.78898455     0.18500
C3533       C  0.33205598  0.73873706  0.84212212    -0.07300
C3534       C  0.35481947  0.72340555  0.83943006    -0.18500
C3535       C  0.35678702  0.70340354  0.81484962     0.09900
C3536       C  0.33565789  0.69877715  0.79215495    -0.07300
C3537       C  0.31123656  0.71025163  0.80022290    -0.18500
C3538       C  0.30932140  0.73070584  0.82433333     0.09900
S3539       S  0.38772984  0.68718790  0.80978989    -0.33500
S3540       S  0.27893757  0.74822765  0.82674867    -0.33500
H3541       H  0.27917486  0.74996050  0.86381477     0.27900
H3542       H  0.37668506  0.66400456  0.79736246     0.27900
H3543       H  0.37188800  0.72830469  0.85482946     0.18500
H3544       H  0.29453741  0.70608356  0.78363800     0.18500
C3545       C  0.35401949  0.79495536  0.53429814    -0.07300
C3546       C  0.37567331  0.77943457  0.54190706    -0.18500
C3547       C  0.37416223  0.75968250  0.56707364     0.09900
C3548       C  0.35060627  0.75618662  0.58658746    -0.07300
C3549       C  0.33032903  0.77424125  0.58243964    -0.18500
C3550       C  0.33181564  0.79355221  0.55644058     0.09900
S3551       S  0.40254186  0.73914793  0.57271525    -0.33500
S3552       S  0.30381861  0.81413568  0.55051711    -0.33500
H3553       H  0.31790927  0.83495593  0.53586829     0.27900
H3554       H  0.41842199  0.75017234  0.54621977     0.27900
H3555       H  0.39276869  0.78154607  0.02203757     0.18500
H3556       H  0.31279611  0.77264757  0.59849841     0.18500
C3557       C  0.27000865  0.82075202  0.96452898    -0.07300
C3558       C  0.26537789  0.84218347  0.98681861    -0.18500
C3559       C  0.24475398  0.83917130  0.51559093     0.09900
C3560       C  0.23043250  0.81608961  0.52252388    -0.07300
C3561       C  0.23570218  0.79473056  0.50052525    -0.18500
C3562       C  0.25283944  0.79931789  0.96772428     0.09900
S3563       S  0.24034648  0.86795186  0.54143061    -0.33500
S3564       S  0.25516749  0.77086910  0.94035760    -0.33500
H3565       H  0.26363003  0.78439412  0.91001976     0.27900
H3566       H  0.23796934  0.85457051  0.57377350     0.27900
H3567       H  0.27865146  0.85853999  0.98570794     0.18500
H3568       H  0.22452799  0.77701695  0.50345874     0.18500
C3569       C  0.40528187  0.73705968  0.92262819    -0.07300
C3570       C  0.40042406  0.72614553  0.95594578    -0.18500
C3571       C  0.40407947  0.69984192  0.96241904     0.09900
C3572       C  0.41438385  0.68388259  0.93539874    -0.07300
C3573       C  0.42150037  0.69524687  0.90285264    -0.18500
C3574       C  0.41739189  0.72179202  0.89641097     0.09900
S3575       S  0.39309037  0.68688738  0.00449845    -0.33500
S3576       S  0.42699680  0.73489410  0.85409098    -0.33500
H3577       H  0.43287949  0.75969505  0.86690291     0.27900
H3578       H  0.37735978  0.70795397  0.01445754     0.27900
H3579       H  0.39120335  0.73794921  0.97604038     0.18500
H3580       H  0.43040493  0.68346897  0.88249214     0.18500
C3581       C  0.57577771  0.84967057  0.69213216    -0.07300
C3582       C  0.57246325  0.87510318  0.67997648    -0.18500
C3583       C  0.54835513  0.88773105  0.68269388     0.09900
C3584       C  0.52683549  0.87500862  0.69918841    -0.07300
C3585       C  0.53051812  0.84962183  0.71195780    -0.18500
C3586       C  0.55462555  0.83697108  0.70881733     0.09900
S3587       S  0.54654291  0.91944716  0.66284063    -0.33500
S3588       S  0.55742035  0.80505292  0.72789787    -0.33500
H3589       H  0.58361599  0.80798178  0.73885537     0.27900
H3590       H  0.52423157  0.91330922  0.64267132     0.27900
H3591       H  0.58852643  0.88486829  0.66665807     0.18500
H3592       H  0.51465184  0.83957826  0.72524457     0.18500
C3593       C  0.65658154  0.79614623  0.78469413    -0.07300
C3594       C  0.63862125  0.77571710  0.78494917    -0.18500
C3595       C  0.64368443  0.75298724  0.80376555     0.09900
C3596       C  0.66546879  0.75171025  0.82723210    -0.07300
C3597       C  0.68145129  0.77386873  0.83042183    -0.18500
C3598       C  0.67738963  0.79578252  0.80912773     0.09900
S3599       S  0.62248313  0.72608390  0.79367400    -0.33500
S3600       S  0.70030998  0.82221578  0.81217601    -0.33500
H3601       H  0.68532442  0.83984647  0.79223839     0.27900
H3602       H  0.64344834  0.70927570  0.78628134     0.27900
H3603       H  0.62296226  0.77559090  0.76550164     0.18500
H3604       H  0.69754195  0.77402136  0.84911874     0.18500
C3605       C  0.66175673  0.74624687  0.58264357    -0.07300
C3606       C  0.68324973  0.72940771  0.58030559    -0.18500
C3607       C  0.68363816  0.70947124  0.55538184     0.09900
C3608       C  0.66241022  0.70638079  0.53194851    -0.07300
C3609       C  0.63993591  0.72124624  0.53663049    -0.18500
C3610       C  0.63928705  0.74105419  0.56149888     0.09900
S3611       S  0.71172341  0.68858210  0.55432074    -0.33500
S3612       S  0.60888714  0.75850030  0.56467845    -0.33500
H3613       H  0.61976134  0.78115747  0.54995266     0.27900
H3614       H  0.69975358  0.66876774  0.53465972     0.27900
H3615       H  0.69995745  0.73193295  0.59766345     0.18500
H3616       H  0.62368963  0.72867221  0.01028986     0.18500
C3617       C  0.64800076  0.86583732  0.58348565    -0.07300
C3618       C  0.63167572  0.88770623  0.58318256    -0.18500
C3619       C  0.62126382  0.89765120  0.55139466     0.09900
C3620       C  0.62715084  0.88557020  0.51882793    -0.07300
C3621       C  0.64515198  0.86504223  0.51886859    -0.18500
C3622       C  0.65568589  0.85522571  0.55062245     0.09900
S3623       S  0.59780697  0.92360282  0.55460286    -0.33500
S3624       S  0.67634945  0.82702611  0.54788200    -0.33500
H3625       H  0.68821922  0.83008604  0.58118983     0.27900
H3626       H  0.60105985  0.93293086  0.51989192     0.27900
H3627       H  0.62489824  0.89554844  0.60810615     0.18500
H3628       H  0.64941712  0.85521413  0.49425770     0.18500
C3629       C  0.61435980  0.72582585  0.68698134    -0.07300
C3630       C  0.58697668  0.72277351  0.68625125    -0.18500
C3631       C  0.57540260  0.69805441  0.68615323     0.09900
C3632       C  0.59157058  0.67578748  0.68644370    -0.07300
C3633       C  0.61884430  0.67912282  0.68690470    -0.18500
C3634       C  0.63029713  0.70353291  0.68748759     0.09900
S3635       S  0.54015606  0.69636845  0.68417881    -0.33500
S3636       S  0.66552343  0.70471701  0.68633470    -0.33500
H3637       H  0.66558831  0.71497505  0.65188836     0.27900
H3638       H  0.53952453  0.67512907  0.66103629     0.27900
H3639       H  0.57455525  0.73974051  0.68512531     0.18500
H3640       H  0.63161029  0.66244862  0.68695184     0.18500
C3641       C  0.92676072  0.85012014  0.81045852    -0.07300
C3642       C  0.92963063  0.87593985  0.82100875    -0.18500
C3643       C  0.95323427  0.88915585  0.81614243     0.09900
C3644       C  0.97475711  0.87616161  0.80072087    -0.07300
C3645       C  0.97172387  0.85039169  0.78989701    -0.18500
C3646       C  0.94801863  0.83721609  0.79471254     0.09900
S3647       S  0.95404026  0.92272571  0.82883265    -0.33500
S3648       S  0.94489132  0.80439338  0.77937680    -0.33500
H3649       H  0.97074400  0.80146768  0.76714958     0.27900
H3650       H  0.96675905  0.93098430  0.79771394     0.27900
H3651       H  0.91328926  0.88592934  0.83314852     0.18500
H3652       H  0.98810876  0.84047486  0.77785769     0.18500
C3653       C  0.87263906  0.89952124  0.96778160    -0.07300
C3654       C  0.85310213  0.88049190  0.97088862    -0.18500
C3655       C  0.84276471  0.86800721  0.94097042     0.09900
C3656       C  0.85152080  0.87500691  0.90672146    -0.07300
C3657       C  0.86851494  0.89630340  0.90344278    -0.18500
C3658       C  0.87920706  0.90846253  0.93345714     0.09900
S3659       S  0.82147136  0.84063888  0.94844796    -0.33500
S3660       S  0.90413109  0.93270016  0.92633391    -0.33500
H3661       H  0.90265041  0.94353746  0.96034389     0.27900
H3662       H  0.81059363  0.84027693  0.91426577     0.27900
H3663       H  0.84814923  0.87308826  0.99683972     0.18500
H3664       H  0.87588660  0.90158548  0.87749746     0.18500
C3665       C  0.84337291  0.79417406  0.71326869    -0.07300
C3666       C  0.82012900  0.79280659  0.69330805    -0.18500
C3667       C  0.81573271  0.77262560  0.66927315     0.09900
C3668       C  0.83510780  0.75342360  0.66479948    -0.07300
C3669       C  0.85910828  0.75616012  0.68280197    -0.18500
C3670       C  0.86341228  0.77625034  0.70670662     0.09900
S3671       S  0.78423452  0.77126889  0.64781483    -0.33500
S3672       S  0.89330400  0.77701126  0.73222374    -0.33500
H3673       H  0.90554786  0.75573678  0.71612788     0.27900
H3674       H  0.78248062  0.74411336  0.64800584     0.27900
H3675       H  0.80417012  0.80589401  0.69933788     0.18500
H3676       H  0.87460455  0.74227466  0.67844993     0.18500
C3677       C  0.84037063  0.74991883  0.91885345    -0.07300
C3678       C  0.82354813  0.72836671  0.91650195    -0.18500
C3679       C  0.82681221  0.70671199  0.93842551     0.09900
C3680       C  0.84732758  0.70617129  0.96328627    -0.07300
C3681       C  0.86575687  0.72616931  0.96310221    -0.18500
C3682       C  0.86227307  0.74835240  0.94221963     0.09900
S3683       S  0.80314548  0.68091651  0.93557026    -0.33500
S3684       S  0.88572486  0.77438071  0.94763535    -0.33500
H3685       H  0.90146007  0.76287871  0.97388718     0.27900
H3686       H  0.81758041  0.66289906  0.95560376     0.27900
H3687       H  0.80738669  0.72850889  0.89790788     0.18500
H3688       H  0.88110874  0.72584876  0.98291043     0.18500
C3689       C  0.76795116  0.81882089  0.77683508    -0.07300
C3690       C  0.76447242  0.84062692  0.75456358    -0.18500
C3691       C  0.74833624  0.84004388  0.72437618     0.09900
C3692       C  0.73489717  0.81716477  0.71517947    -0.07300
C3693       C  0.73855989  0.79522474  0.73687087    -0.18500
C3694       C  0.75412178  0.79594440  0.76769790     0.09900
S3695       S  0.74607047  0.86912226  0.69804488    -0.33500
S3696       S  0.75443575  0.76718387  0.79468615    -0.33500
H3697       H  0.75073391  0.78077667  0.82647611     0.27900
H3698       H  0.73941417  0.85665918  0.66626760     0.27900
H3699       H  0.77507309  0.85833009  0.76007698     0.18500
H3700       H  0.72767028  0.77772059  0.73125356     0.18500
C3701       C  0.88664849  0.72793594  0.82318447    -0.07300
C3702       C  0.86932636  0.70712554  0.81896838    -0.18500
C3703       C  0.87817775  0.68167055  0.81837536     0.09900
C3704       C  0.90539763  0.67655953  0.82015424    -0.07300
C3705       C  0.92278362  0.69740424  0.82506144    -0.18500
C3706       C  0.91364692  0.72296675  0.82747796     0.09900
S3707       S  0.85350366  0.65696048  0.81407894    -0.33500
S3708       S  0.93670359  0.74893676  0.83454314    -0.33500
H3709       H  0.95866586  0.73329062  0.84142760     0.27900
H3710       H  0.86059305  0.64478646  0.84605305     0.27900
H3711       H  0.84842633  0.71067236  0.81707386     0.18500
H3712       H  0.94362649  0.69364761  0.82662328     0.18500
loop_ 
_geom_bond_atom_site_label_1 
_geom_bond_atom_site_label_2 
_geom_bond_distance 
_geom_bond_site_symmetry_2 
_ccdc_geom_bond_type 
O1           C16   1.254       .  A
O1           Al9   1.872       .  S
C2           O12   1.273       .  A
C2            O3   1.257       .  A
C2         C1809   1.460       .  S
O3           Al5   1.871       .  S
O4            C6   1.258       .  A
O4           Al5   1.891       .  S
Al5          O13   1.921       .  S
Al5          O15   1.929       .  S
Al5          O14   1.792       .  S
C6           O19   1.256       .  A
C6         C1845   1.473       .  S
O7           C17   1.257       .  A
O7           Al9   1.891       .  S
O8           C21   1.276       .  A
O8          Al18   1.954       .  S
Al9          O22   1.906       .  S
Al9          O19   1.904       .  S
Al9          O14   1.778       .  S
O10          C17   1.261       .  A
O10         Al18   1.914       .  S
O11          C20   1.262       .  A
O11         Al18   1.914       .  S
O12         Al18   1.934       .  S
O13          C20   1.270       .  A
O14         Al18   1.787       .  S
O15          C16   1.267       .  A
C16        C1821   1.492       .  S
C17        C1785   1.472       .  S
C20        C1833   1.515       .  S
C21          O22   1.263       .  A
C21        C1800   1.489       .  S
O23          C38   1.256       .  A
O23         Al31   1.874       .  S
C24          O34   1.273       .  A
C24          O25   1.260       .  A
C24        C1737   1.457       .  S
O25         Al27   1.878       .  S
O26          C28   1.258       .  A
O26         Al27   1.896       .  S
Al27         O35   1.913       .  S
Al27         O37   1.914       .  S
Al27         O36   1.786       .  S
C28          O41   1.257       .  A
C28        C1773   1.476       .  S
O29          C39   1.258       .  A
O29         Al31   1.904       .  S
O30          C43   1.279       .  A
O30         Al40   1.956       .  S
Al31         O44   1.912       .  S
Al31         O41   1.903       .  S
Al31         O36   1.775       .  S
O32          C39   1.260       .  A
O32         Al40   1.918       .  S
O33          C42   1.260       .  A
O33         Al40   1.921       .  S
O34         Al40   1.935       .  S
O35          C42   1.266       .  A
O36         Al40   1.786       .  S
O37          C38   1.265       .  A
C38        C1749   1.484       .  S
C39        C1725   1.471       .  S
C42        C1836   1.501       .  S
C43          O44   1.265       .  A
C43        C1761   1.489       .  S
O45          C60   1.265       .  A
O45         Al53   1.887       .  S
C46        O1912   1.254       .  A
C46        O1903   1.266       .  A
C46        C1689   1.462   1_556  S
O47        C1902   1.265       .  A
O47         Al49   1.937       .  S
O48          C50   1.262       .  A
O48         Al49   1.932       .  S
Al49         O57   1.954       .  S
Al49         O59   1.963       .  S
Al49         O58   1.798       .  S
C50          O63   1.255       .  A
C50        C1653   1.499       .  S
O51          C61   1.267       .  A
O51         Al53   1.929       .  S
O52          C65   1.263       .  A
O52         Al62   1.910       .  S
Al53         O66   1.892       .  S
Al53         O63   1.892       .  S
Al53         O58   1.790       .  S
O54          C61   1.260       .  A
O54         Al62   1.885       .  S
O55          C64   1.256       .  A
O55         Al62   1.876       .  S
O56        C1902   1.254       .  A
O56         Al62   1.840       .  S
O57          C64   1.271       .  A
O58         Al62   1.777       .  S
O59          C60   1.277       .  A
C60        C1668   1.497       .  S
C61        C1713   1.471       .  S
C64        C1701   1.510       .  S
C65          O66   1.259       .  A
C65        C1677   1.477       .  S
O67          C82   1.265       .  A
O67         Al75   1.893       .  S
C68        O1934   1.255       .  A
C68        O1925   1.264       .  A
C68        C1629   1.455       .  S
O69        C1924   1.263   1_554  A
O69         Al71   1.926       .  S
O70          C72   1.256       .  A
O70         Al71   1.905       .  S
Al71         O79   1.940       .  S
Al71         O81   1.963       .  S
Al71         O80   1.806       .  S
C72          O85   1.251       .  A
C72        C1593   1.466       .  S
O73          C83   1.265       .  A
O73         Al75   1.928       .  S
O74          C87   1.265       .  A
O74         Al84   1.908       .  S
Al75         O88   1.880       .  S
Al75         O85   1.875       .  S
Al75         O80   1.790       .  S
O76          C83   1.259       .  A
O76         Al84   1.894       .  S
O77          C86   1.259       .  A
O77         Al84   1.886       .  S
O78        C1924   1.255   1_554  A
O78         Al84   1.843       .  S
O79          C86   1.269       .  A
O80         Al84   1.781       .  S
O81          C82   1.276       .  A
C82        C1605   1.494       .  S
C83        C1641   1.477       .  S
C86        C1704   1.515       .  S
C87          O88   1.257       .  A
C87        C1620   1.478       .  S
O89         C104   1.255       .  A
O89         Al97   1.878       .  S
C90         O100   1.271       .  A
C90          O91   1.256       .  A
C90        C1680   1.473       .  S
O91         Al93   1.864       .  S
O92          C94   1.258       .  A
O92         Al93   1.885       .  S
Al93        O101   1.917       .  S
Al93        O103   1.926       .  S
Al93        O102   1.789       .  S
C94         O107   1.260       .  A
C94        C1581   1.476       .  S
O95         C105   1.254       .  A
O95         Al97   1.872       .  S
O96         C109   1.270       .  A
O96        Al106   1.941       .  S
Al97        O110   1.899       .  S
Al97        O107   1.913       .  S
Al97        O102   1.783       .  S
O98         C105   1.265       .  A
O98        Al106   1.943       .  S
O99         C108   1.267       .  A
O99        Al106   1.925       .  S
O100       Al106   1.939       .  S
O101        C108   1.269       .  A
O102       Al106   1.797       .  S
O103        C104   1.262       .  A
C104       C1692   1.479       .  S
C105       C1557   1.479       .  S
C108       C1569   1.513       .  S
C109        O110   1.261       .  A
C109       C1545   1.484       .  S
O111        C126   1.259       .  A
O111       Al119   1.875       .  S
C112        O122   1.269       .  A
C112        O113   1.256       .  A
C112       C1617   1.467       .  S
O113       Al115   1.868       .  S
O114        C116   1.260       .  A
O114       Al115   1.901       .  S
Al115       O123   1.913       .  S
Al115       O125   1.919       .  S
Al115       O124   1.792       .  S
C116        O129   1.259       .  A
C116       C1533   1.481       .  S
O117        C127   1.257       .  A
O117       Al119   1.876       .  S
O118        C131   1.273       .  A
O118       Al128   1.957       .  S
Al119       O132   1.905       .  S
Al119       O129   1.905       .  S
Al119       O124   1.779       .  S
O120        C127   1.266       .  A
O120       Al128   1.931       .  S
O121        C130   1.265       .  A
O121       Al128   1.923       .  S
O122       Al128   1.928       .  S
O123        C130   1.269       .  A
O124       Al128   1.791       .  S
O125        C126   1.262       .  A
C126       C1632   1.473       .  S
C127       C1512   1.481       .  S
C130       C1572   1.506       .  S
C131        O132   1.260       .  A
C131       C1524   1.495       .  S
O133       C2004   1.262       .  A
O133      Al1997   1.895   1_554  S
C134        O144   1.254       .  A
C134        O135   1.272       .  A
C134       C1461   1.471       .  S
O135       Al137   1.947       .  S
O136        C138   1.262       .  A
O136       Al137   1.923       .  S
Al137       O145   1.942       .  S
Al137       O147   1.950       .  S
Al137       O146   1.784       .  S
C138        O151   1.253       .  A
C138       C1473   1.466       .  S
O139        C149   1.268       .  A
O139       Al141   1.931       .  S
O140       C2009   1.258       .  A
O140       Al150   1.918       .  S
Al141       O151   1.876       .  S
Al141      O1989   1.894       .  S
Al141      O2010   1.870       .  S
Al141       O146   1.775       .  S
O142        C149   1.258       .  A
O142       Al150   1.878       .  S
O143        C152   1.270       .  A
O143       Al150   1.905       .  S
O144       Al150   1.883       .  S
O145        C152   1.269       .  A
O146       Al150   1.788       .  S
O147        C148   1.274       .  A
C148       O1989   1.262       .  A
C148       C3293   1.488       .  S
C149       C1497   1.488   1_655  S
C152       C1485   1.495       .  S
C153        O154   1.251       .  A
C153       O1996   1.258   1_554  A
C153       C1449   1.484       .  S
O154      Al1997   1.873   1_554  S
O155        C170   1.261       .  A
O155       Al163   1.897       .  S
C156        O166   1.256       .  A
C156        O157   1.273       .  A
C156       C1425   1.463       .  S
O157       Al159   1.937       .  S
O158        C160   1.259       .  A
O158       Al159   1.913       .  S
Al159       O167   1.910       .  S
Al159       O169   1.954       .  S
Al159       O168   1.788       .  S
C160        O173   1.258       .  A
C160       C1848   1.482       .  S
O161        C171   1.258       .  A
O161       Al163   1.904       .  S
O162        C175   1.261       .  A
O162       Al172   1.897       .  S
Al163       O176   1.875       .  S
Al163       O173   1.892       .  S
Al163       O168   1.781       .  S
O164        C171   1.258       .  A
O164       Al172   1.897       .  S
O165        C174   1.267       .  A
O165       Al172   1.920       .  S
O166       Al172   1.869       .  S
O167        C174   1.260       .  A
O168       Al172   1.785       .  S
O169        C170   1.275       .  A
C170       C1404   1.485       .  S
C171       C1509   1.479   1_655  S
C174       C1488   1.501       .  S
C175        O176   1.257       .  A
C175       C1413   1.472       .  S
O177        C192   1.260       .  A
O177       Al185   1.898       .  S
C178        O188   1.256       .  A
C178        O179   1.274       .  A
C178       C1377   1.471       .  S
O179       Al181   1.933       .  S
O180        C182   1.263       .  A
O180       Al181   1.915       .  S
Al181       O189   1.896       .  S
Al181       O191   1.952       .  S
Al181       O190   1.780       .  S
C182        O195   1.258       .  A
C182       C1776   1.484       .  S
O183        C193   1.259       .  A
O183       Al185   1.909       .  S
O184        C197   1.261       .  A
O184       Al194   1.931       .  S
Al185       O198   1.865       .  S
Al185       O195   1.892       .  S
Al185       O190   1.774       .  S
O186        C193   1.263       .  A
O186       Al194   1.914       .  S
O187        C196   1.275       .  A
O187       Al194   1.937       .  S
O188       Al194   1.860       .  S
O189        C196   1.259       .  A
O190       Al194   1.797       .  S
O191        C192   1.273       .  A
C192       C1353   1.486       .  S
C193       C1560   1.473       .  S
C196       C1389   1.496       .  S
C197        O198   1.254       .  A
C197       C1365   1.490       .  S
O199        C214   1.265       .  A
O199      Al2063   1.909       .  S
C200        O210   1.257       .  A
C200        O201   1.272       .  A
C200       C1317   1.466       .  S
O201       Al203   1.937       .  S
O202        C204   1.260       .  A
O202       Al203   1.915       .  S
Al203       O211   1.917       .  S
Al203       O213   1.939       .  S
Al203       O212   1.779       .  S
C204        O217   1.252       .  A
C204       C1332   1.460       .  S
O205        C215   1.266       .  A
O205       Al207   1.934       .  S
O206       C2075   1.262   1_554  A
O206       Al216   1.949       .  S
Al207       O217   1.878       .  S
Al207      O2055   1.904   1_554  S
Al207      O2076   1.863   1_554  S
Al207       O212   1.770       .  S
O208        C215   1.262       .  A
O208       Al216   1.883       .  S
O209        C218   1.276       .  A
O209       Al216   1.928       .  S
O210       Al216   1.882       .  S
O211        C218   1.266       .  A
O212       Al216   1.795       .  S
O213       C2070   1.272       .  A
C214       O2069   1.269       .  A
C214       C1293   1.480       .  S
C215       C1341   1.485       .  S
C218       C1392   1.494       .  S
C219        O220   1.248       .  A
C219       O2062   1.261       .  A
C219       C1308   1.490       .  S
O220      Al2063   1.867       .  S
O221        C236   1.256       .  A
O221       Al229   1.876       .  S
C222       O2088   1.269   1_554  A
C222       O2079   1.258   1_554  A
C222       C1260   1.456       .  S
O223       C2078   1.256       .  A
O223       Al225   1.866       .  S
O224        C226   1.258       .  A
O224       Al225   1.891       .  S
Al225       O233   1.913       .  S
Al225       O235   1.918       .  S
Al225       O234   1.784       .  S
C226        O239   1.256       .  A
C226       C1476   1.480       .  S
O227        C237   1.257       .  A
O227       Al229   1.880       .  S
O228        C241   1.276       .  A
O228       Al238   1.956       .  S
Al229       O242   1.902       .  S
Al229       O239   1.906       .  S
Al229       O234   1.777       .  S
O230        C237   1.261       .  A
O230       Al238   1.921       .  S
O231        C240   1.266       .  A
O231       Al238   1.934       .  S
O232       C2078   1.270       .  A
O232       Al238   1.931       .  S
O233        C240   1.267       .  A
O234       Al238   1.789       .  S
O235        C236   1.264       .  A
C236       C1269   1.485       .  S
C237       C1233   1.484       .  S
C240       C1281   1.516       .  S
C241        O242   1.262       .  A
C241       C1245   1.490       .  S
O243        C258   1.253       .  A
O243       Al251   1.873       .  S
C244       O2110   1.275       .  A
C244       O2101   1.256       .  A
C244       C1197   1.479       .  S
O245       C2100   1.255   1_554  A
O245       Al247   1.876       .  S
O246        C248   1.259       .  A
O246       Al247   1.899       .  S
Al247       O255   1.920       .  S
Al247       O257   1.932       .  S
Al247       O256   1.803       .  S
C248        O261   1.257       .  A
C248       C1329   1.483       .  S
O249        C259   1.248       .  A
O249       Al251   1.853       .  S
O250        C263   1.276       .  A
O250       Al260   1.969       .  S
Al251       O264   1.887       .  S
Al251       O261   1.885       .  S
Al251       O256   1.777       .  S
O252        C259   1.262       .  A
O252       Al260   1.937       .  S
O253        C262   1.265       .  A
O253       Al260   1.916       .  S
O254       C2100   1.274   1_554  A
O254       Al260   1.952       .  S
O255        C262   1.273       .  A
O256       Al260   1.793       .  S
O257        C258   1.262       .  A
C258       C1209   1.479       .  S
C259       C1188   1.481       .  S
C262       C1284   1.504       .  S
C263        O264   1.258       .  A
C263       C1224   1.497       .  S
O265       C2136   1.265       .  A
O265      Al2129   1.906   1_554  S
C266        O276   1.254       .  A
C266        O267   1.270       .  A
C266       C1173   1.461       .  S
O267       Al269   1.942       .  S
O268        C270   1.258       .  A
O268       Al269   1.915       .  S
Al269       O277   1.935       .  S
Al269       O279   1.947       .  S
Al269       O278   1.789       .  S
C270        O283   1.255       .  A
C270       C1140   1.484       .  S
O271        C281   1.258       .  A
O271       Al273   1.898       .  S
O272       C2141   1.262       .  A
O272       Al282   1.922       .  S
Al273       O283   1.884       .  S
Al273      O2121   1.905       .  S
Al273      O2142   1.885       .  S
Al273       O278   1.774       .  S
O274        C281   1.259       .  A
O274       Al282   1.889       .  S
O275        C284   1.272       .  A
O275       Al282   1.914       .  S
O276       Al282   1.884       .  S
O277        C284   1.266       .  A
O278       Al282   1.790       .  S
O279        C280   1.276       .  A
C280       O2121   1.265       .  A
C280       C2984   1.486       .  S
C281       C1236   1.454   1_455  S
C284       C1149   1.496       .  S
C285        O286   1.257       .  A
C285       O2128   1.261   1_554  A
C285       C1164   1.490       .  S
O286      Al2129   1.881   1_554  S
O287        C302   1.261       .  A
O287       Al295   1.888       .  S
C288        O298   1.253       .  A
C288        O289   1.268       .  A
C288       C1113   1.459       .  S
O289       Al291   1.936       .  S
O290        C292   1.261       .  A
O290       Al291   1.920       .  S
Al291       O299   1.953       .  S
Al291       O301   1.953       .  S
Al291       O300   1.786       .  S
C292        O305   1.254       .  A
C292       C1536   1.466       .  S
O293        C303   1.263       .  A
O293       Al295   1.910       .  S
O294        C307   1.258       .  A
O294       Al304   1.919       .  S
Al295       O308   1.880       .  S
Al295       O305   1.881       .  S
Al295       O300   1.773       .  S
O296        C303   1.261       .  A
O296       Al304   1.889       .  S
O297        C306   1.269       .  A
O297       Al304   1.908       .  S
O298       Al304   1.883       .  S
O299        C306   1.272       .  A
O300       Al304   1.792       .  S
O301        C302   1.276       .  A
C302       C1608   1.486       .  S
C303       C1788   1.470   1_455  S
C306       C1152   1.510       .  S
C307        O308   1.255       .  A
C307       C1101   1.481   1_455  S
O309        C324   1.259       .  A
O309       Al317   1.884       .  S
C310       O2176   1.271   1_554  A
C310       O2167   1.259   1_554  A
C310       C1080   1.453       .  S
O311       C2166   1.258       .  A
O311       Al313   1.881       .  S
O312        C314   1.258       .  A
O312       Al313   1.896       .  S
Al313       O321   1.915       .  S
Al313       O323   1.921       .  S
Al313       O322   1.786       .  S
C314        O327   1.257       .  A
C314       C1137   1.462       .  S
O315        C325   1.253       .  A
O315       Al317   1.888       .  S
O316        C329   1.277       .  A
O316       Al326   1.943       .  S
Al317       O330   1.917       .  S
Al317       O327   1.901       .  S
Al317       O322   1.772       .  S
O318        C325   1.258       .  A
O318       Al326   1.920       .  S
O319        C328   1.264       .  A
O319       Al326   1.937       .  S
O320       C2166   1.269       .  A
O320       Al326   1.926       .  S
O321        C328   1.270       .  A
O322       Al326   1.793       .  S
O323        C324   1.265       .  A
C324       C1089   1.486       .  S
C325       C1500   1.463       .  S
C328       C1053   1.503       .  S
C329        O330   1.268       .  A
C329       C1068   1.487       .  S
O331        C346   1.266       .  A
O331       Al339   1.912       .  S
C332       O2198   1.269       .  A
C332       O2189   1.254       .  A
C332       C1017   1.457       .  S
O333       C2188   1.253       .  A
O333       Al335   1.851       .  S
O334        C336   1.261       .  A
O334       Al335   1.899       .  S
Al335       O343   1.912       .  S
Al335       O345   1.907       .  S
Al335       O344   1.770       .  S
C336        O349   1.260       .  A
C336       C1041   1.461       .  S
O337        C347   1.261       .  A
O337       Al339   1.913       .  S
O338        C351   1.281       .  A
O338       Al348   1.996       .  S
Al339       O352   1.878       .  S
Al339       O349   1.905       .  S
Al339       O344   1.779       .  S
O340        C347   1.260       .  A
O340       Al348   1.900       .  S
O341        C350   1.273       .  A
O341       Al348   1.932       .  S
O342       C2188   1.269       .  A
O342       Al348   1.959       .  S
O343        C350   1.263       .  A
O344       Al348   1.789       .  S
O345        C346   1.265       .  A
C346       C1032   1.481       .  S
C347       C1344   1.483       .  S
C350       C1056   1.506       .  S
C351        O352   1.260       .  A
C351       C1008   1.504       .  S
O353        C368   1.254       .  A
O353      Al2217   1.877       .  S
C354        O364   1.269       .  A
C354        O355   1.255       .  A
C354       C1416   1.461       .  S
O355       Al357   1.874       .  S
O356        C358   1.259       .  A
O356       Al357   1.886       .  S
Al357       O365   1.930       .  S
Al357       O367   1.933       .  S
Al357       O366   1.792       .  S
C358        O371   1.264       .  A
C358        C993   1.483   1_455  S
O359        C369   1.250       .  A
O359       Al361   1.885       .  S
O360        C373   1.275   1_554  A
O360       Al370   1.945       .  S
Al361       O371   1.911       .  S
Al361      O2209   1.880   1_554  S
Al361      O2230   1.908   1_554  S
Al361       O366   1.775       .  S
O362        C369   1.262       .  A
O362       Al370   1.934       .  S
O363        C372   1.271       .  A
O363       Al370   1.949       .  S
O364       Al370   1.934       .  S
O365        C372   1.276       .  A
O366       Al370   1.784       .  S
O367       C2224   1.261   1_554  A
C368       O2223   1.262       .  A
C368       C1428   1.487       .  S
C369       C1644   1.473       .  S
C372        C981   1.508       .  S
C373       O2230   1.266       .  A
C373       C3377   1.488       .  S
O374       C2229   1.262       .  A
O374      Al2217   1.902       .  S
O375        C390   1.253       .  A
O375       Al383   1.875       .  S
C376        O386   1.271       .  A
C376        O377   1.256       .  A
C376       C1452   1.466       .  S
O377       Al379   1.883       .  S
O378        C380   1.262       .  A
O378       Al379   1.900       .  S
Al379       O387   1.943       .  S
Al379       O389   1.940       .  S
Al379       O388   1.800       .  S
C380        O393   1.265       .  A
C380        C969   1.484   1_455  S
O381        C391   1.254       .  A
O381       Al383   1.891       .  S
O382        C395   1.275       .  A
O382       Al392   1.950       .  S
Al383       O396   1.899       .  S
Al383       O393   1.920       .  S
Al383       O388   1.778       .  S
O384        C391   1.259       .  A
O384       Al392   1.919       .  S
O385        C394   1.268       .  A
O385       Al392   1.931       .  S
O386       Al392   1.941       .  S
O387        C394   1.277       .  A
O388       Al392   1.787       .  S
O389        C390   1.262       .  A
C390       C1464   1.493       .  S
C391        C957   1.471       .  S
C394        C984   1.508       .  S
C395        O396   1.263       .  A
C395       C1065   1.489       .  S
O397        C412   1.252       .  A
O397      Al2261   1.866       .  S
C398        O408   1.272       .  A
C398        O399   1.258       .  A
C398       C1104   1.458       .  S
O399       Al401   1.874       .  S
O400        C402   1.256       .  A
O400       Al401   1.883       .  S
Al401       O409   1.917       .  S
Al401       O411   1.923       .  S
Al401       O410   1.788       .  S
C402        O415   1.259       .  A
C402       C1596   1.468   1_655  S
O403        C413   1.256       .  A
O403       Al405   1.883       .  S
O404        C417   1.276   1_554  A
O404       Al414   1.952       .  S
Al405       O415   1.911       .  S
Al405      O2253   1.869   1_554  S
Al405      O2274   1.904   1_554  S
Al405       O410   1.773       .  S
O406        C413   1.262       .  A
O406       Al414   1.930       .  S
O407        C416   1.264       .  A
O407       Al414   1.926       .  S
O408       Al414   1.931       .  S
O409        C416   1.269       .  A
O410       Al414   1.787       .  S
O411       C2268   1.265   1_554  A
C412       O2267   1.267       .  A
C412       C1116   1.491       .  S
C413        C933   1.488       .  S
C416        C945   1.509       .  S
C417       O2274   1.263       .  A
C417       C3653   1.487       .  S
O418       C2273   1.263       .  A
O418      Al2261   1.908       .  S
O419        C434   1.253       .  A
O419       Al427   1.871       .  S
C420        O430   1.274       .  A
C420        O421   1.258       .  A
C420       C1161   1.463       .  S
O421       Al423   1.882       .  S
O422        C424   1.257       .  A
O422       Al423   1.878       .  S
Al423       O431   1.914       .  S
Al423       O433   1.924       .  S
Al423       O432   1.793       .  S
C424        O437   1.260       .  A
C424        C921   1.466   1_655  S
O425        C435   1.254       .  A
O425       Al427   1.895       .  S
O426        C439   1.277       .  A
O426       Al436   1.954       .  S
Al427       O440   1.907       .  S
Al427       O437   1.903       .  S
Al427       O432   1.776       .  S
O428        C435   1.260       .  A
O428       Al436   1.912       .  S
O429        C438   1.262       .  A
O429       Al436   1.923       .  S
O430       Al436   1.942       .  S
O431        C438   1.270       .  A
O432       Al436   1.785       .  S
O433        C434   1.263       .  A
C434       C1176   1.493       .  S
C435        C909   1.482       .  S
C438        C948   1.497       .  S
C439        O440   1.266       .  A
C439       C1248   1.491       .  S
O441        C456   1.269       .  A
O441       Al449   1.921       .  S
C442       O2308   1.258       .  A
C442       O2299   1.269       .  A
C442       C1824   1.457       .  S
O443       C2298   1.272   1_554  A
O443       Al445   1.936       .  S
O444        C446   1.254       .  A
O444       Al445   1.895       .  S
Al445       O453   1.910       .  S
Al445       O455   1.942       .  S
Al445       O454   1.790       .  S
C446        O459   1.255       .  A
C446        C996   1.460       .  S
O447        C457   1.260       .  A
O447       Al449   1.906       .  S
O448        C461   1.260       .  A
O448       Al458   1.906       .  S
Al449       O462   1.877       .  S
Al449       O459   1.900       .  S
Al449       O454   1.774       .  S
O450        C457   1.259       .  A
O450       Al458   1.892       .  S
O451        C460   1.267       .  A
O451       Al458   1.911       .  S
O452       C2298   1.258   1_554  A
O452       Al458   1.884       .  S
O453        C460   1.259       .  A
O454       Al458   1.789       .  S
O455        C456   1.277       .  A
C456       C1401   1.488       .  S
C457        C936   1.472       .  S
C460        C900   1.492       .  S
C461        O462   1.259       .  A
C461       C1812   1.474       .  S
O463        C478   1.264       .  A
O463       Al471   1.911       .  S
C464       O2330   1.260       .  A
C464       O2321   1.268       .  A
C464       C1752   1.451   1_556  S
O465       C2320   1.269       .  A
O465       Al467   1.918       .  S
O466        C468   1.263       .  A
O466       Al467   1.925       .  S
Al467       O475   1.924       .  S
Al467       O477   1.945       .  S
Al467       O476   1.783       .  S
C468        O481   1.256       .  A
C468        C873   1.488       .  S
O469        C479   1.255       .  A
O469       Al471   1.886       .  S
O470        C483   1.266       .  A
O470       Al480   1.926       .  S
Al471       O484   1.879       .  S
Al471       O481   1.888       .  S
Al471       O476   1.770       .  S
O472        C479   1.260       .  A
O472       Al480   1.899       .  S
O473        C482   1.265       .  A
O473       Al480   1.909       .  S
O474       C2320   1.262       .  A
O474       Al480   1.904       .  S
O475        C482   1.263       .  A
O476       Al480   1.787       .  S
O477        C478   1.274       .  A
C478       C1356   1.485       .  S
C479        C888   1.458       .  S
C482        C897   1.503       .  S
C483        O484   1.257       .  A
C483       C1740   1.491       .  S
O485        C500   1.271       .  A
O485       Al493   1.877       .  S
C486        O496   1.241       .  A
C486        O487   1.263       .  A
C486        C864   1.462       .  S
O487       Al489   1.922       .  S
O488        C490   1.252       .  A
O488       Al489   1.922       .  S
Al489       O497   1.909       .  S
Al489       O499   1.985       .  S
Al489       O498   1.782       .  S
C490        O503   1.241       .  A
C490       C1584   1.482       .  S
O491        C501   1.275       .  A
O491       Al493   1.911       .  S
O492        C505   1.257       .  A
O492       Al502   1.910       .  S
Al493       O506   1.829       .  S
Al493       O503   1.864       .  S
Al493       O498   1.780       .  S
O494        C501   1.276       .  A
O494       Al502   1.937       .  S
O495        C504   1.276       .  A
O495       Al502   1.947       .  S
O496       Al502   1.816       .  S
O497        C504   1.264       .  A
O498       Al502   1.794       .  S
O499        C500   1.285       .  A
C500       C1665   1.494       .  S
C501       C1728   1.490       .  S
C504        C840   1.505       .  S
C505        O506   1.239       .  A
C505        C849   1.484       .  S
O507       C2378   1.262       .  A
O507      Al2371   1.901       .  S
C508        O518   1.256       .  A
C508        O509   1.273       .  A
C508        C828   1.465       .  S
O509       Al511   1.951       .  S
O510        C512   1.263       .  A
O510       Al511   1.930       .  S
Al511       O519   1.943       .  S
Al511       O521   1.960       .  S
Al511       O520   1.774       .  S
C512        O525   1.249       .  A
C512       C1044   1.462       .  S
O513        C523   1.266       .  A
O513       Al515   1.915       .  S
O514       C2383   1.261   1_554  A
O514       Al524   1.934       .  S
Al515       O525   1.870       .  S
Al515      O2363   1.905       .  S
Al515      O2384   1.865   1_554  S
Al515       O520   1.763       .  S
O516        C523   1.262       .  A
O516       Al524   1.902       .  S
O517        C526   1.277       .  A
O517       Al524   1.929       .  S
O518       Al524   1.889       .  S
O519        C526   1.270       .  A
O520       Al524   1.794       .  S
O521        C522   1.277       .  A
C522       O2363   1.263       .  A
C522       C2657   1.492   1_554  S
C523       C1185   1.479       .  S
C526        C837   1.508       .  S
C527        O528   1.249       .  A
C527       O2370   1.261       .  A
C527        C813   1.470       .  S
O528      Al2371   1.868       .  S
O529        C544   1.260       .  A
O529       Al537   1.904       .  S
C530        O540   1.259       .  A
C530        O531   1.273       .  A
C530       C1029   1.469       .  S
O531       Al533   1.938       .  S
O532        C534   1.262       .  A
O532       Al533   1.919       .  S
Al533       O541   1.893       .  S
Al533       O543   1.953       .  S
Al533       O542   1.795       .  S
C534        O547   1.261       .  A
C534        C768   1.478       .  S
O535        C545   1.255       .  A
O535       Al537   1.895       .  S
O536        C549   1.264       .  A
O536       Al546   1.913       .  S
Al537       O550   1.880       .  S
Al537       O547   1.896       .  S
Al537       O542   1.781       .  S
O538        C545   1.258       .  A
O538       Al546   1.905       .  S
O539        C548   1.263       .  A
O539       Al546   1.906       .  S
O540       Al546   1.866       .  S
O541        C548   1.256       .  A
O542       Al546   1.788       .  S
O543        C544   1.272       .  A
C544        C804   1.488       .  S
C545        C792   1.482       .  S
C548        C780   1.505       .  S
C549        O550   1.263       .  A
C549       C1020   1.469       .  S
O551        C566   1.263       .  A
O551       Al559   1.906       .  S
C552        O562   1.257       .  A
C552        O553   1.267       .  A
C552       C1092   1.458       .  S
O553       Al555   1.924       .  S
O554        C556   1.263       .  A
O554       Al555   1.913       .  S
Al555       O563   1.917       .  S
Al555       O565   1.943       .  S
Al555       O564   1.785       .  S
C556        O569   1.255       .  A
C556        C924   1.474       .  S
O557        C567   1.259       .  A
O557       Al559   1.914       .  S
O558        C571   1.263       .  A
O558       Al568   1.920       .  S
Al559       O572   1.878       .  S
Al559       O569   1.876       .  S
Al559       O564   1.772       .  S
O560        C567   1.263       .  A
O560       Al568   1.904       .  S
O561        C570   1.268       .  A
O561       Al568   1.907       .  S
O562       Al568   1.887       .  S
O563        C570   1.264       .  A
O564       Al568   1.786       .  S
O565        C566   1.272       .  A
C566       C1125   1.486       .  S
C567        C960   1.492       .  S
C570        C777   1.489       .  S
C571        O572   1.255       .  A
C571       C1077   1.483       .  S
O573        C588   1.252       .  A
O573      Al2437   1.852   1_554  S
C574        O584   1.286       .  A
C574        O575   1.268       .  A
C574        C852   1.470       .  S
O575       Al577   1.871       .  S
O576        C578   1.258       .  A
O576       Al577   1.914       .  S
Al577       O585   1.934       .  S
Al577       O587   1.900       .  S
Al577       O586   1.791       .  S
C578        O591   1.255       .  A
C578       C1656   1.478       .  S
O579        C589   1.244       .  A
O579       Al581   1.883       .  S
O580        C593   1.281       .  A
O580       Al590   1.939       .  S
Al581       O591   1.890       .  S
Al581      O2429   1.849       .  S
Al581      O2450   1.937       .  S
Al581       O586   1.773       .  S
O582        C589   1.248       .  A
O582       Al590   1.909       .  S
O583        C592   1.241       .  A
O583       Al590   1.870       .  S
O584       Al590   1.937       .  S
O585        C592   1.264       .  A
O586       Al590   1.792       .  S
O587       C2444   1.266       .  A
C588       O2443   1.265   1_554  A
C588        C861   1.471       .  S
C589        C885   1.482       .  S
C592        C753   1.506       .  S
C593       O2450   1.275       .  A
C593       C3620   1.488       .  S
O594       C2449   1.274       .  A
O594      Al2437   1.935       .  S
O595        C610   1.248       .  A
O595       Al603   1.863       .  S
C596        O606   1.276       .  A
C596        O597   1.259       .  A
C596        C816   1.477       .  S
O597       Al599   1.868       .  S
O598        C600   1.260       .  A
O598       Al599   1.903       .  S
Al599       O607   1.937       .  S
Al599       O609   1.929       .  S
Al599       O608   1.797       .  S
C600        O613   1.260       .  A
C600        C765   1.484       .  S
O601        C611   1.252       .  A
O601       Al603   1.880       .  S
O602        C615   1.280       .  A
O602       Al612   1.971       .  S
Al603       O616   1.895       .  S
Al603       O613   1.903       .  S
Al603       O608   1.781       .  S
O604        C611   1.261       .  A
O604       Al612   1.921       .  S
O605        C614   1.261       .  A
O605       Al612   1.922       .  S
O606       Al612   1.952       .  S
O607        C614   1.273       .  A
O608       Al612   1.779       .  S
O609        C610   1.263       .  A
C610        C825   1.492       .  S
C611        C741   1.471       .  S
C614        C756   1.507       .  S
C615        O616   1.262       .  A
C615       C1221   1.494       .  S
O617        C632   1.267       .  A
O617       Al625   1.915       .  S
C618        O628   1.254       .  A
C618        O619   1.269       .  A
C618       C1272   1.453       .  S
O619       Al621   1.934       .  S
O620        C622   1.263       .  A
O620       Al621   1.928       .  S
Al621       O629   1.968       .  S
Al621       O631   1.946       .  S
Al621       O630   1.788       .  S
C622        O635   1.256       .  A
C622        C972   1.478       .  S
O623        C633   1.264       .  A
O623       Al625   1.924       .  S
O624        C637   1.257       .  A
O624       Al634   1.904       .  S
Al625       O638   1.884       .  S
Al625       O635   1.887       .  S
Al625       O630   1.775       .  S
O626        C633   1.261       .  A
O626       Al634   1.893       .  S
O627        C636   1.266       .  A
O627       Al634   1.904       .  S
O628       Al634   1.879       .  S
O629        C636   1.273       .  A
O630       Al634   1.782       .  S
O631        C632   1.277       .  A
C632       C1440   1.490       .  S
C633        C912   1.476       .  S
C636        C729   1.518       .  S
C637        O638   1.259       .  A
C637       C1257   1.474       .  S
O639        C654   1.262       .  A
O639       Al647   1.894       .  S
C640        O650   1.260       .  A
C640        O641   1.259       .  A
C640       C1212   1.466       .  S
O641       Al643   1.922       .  S
O642        C644   1.261       .  A
O642       Al643   1.913       .  S
Al643       O651   1.933       .  S
Al643       O653   1.952       .  S
Al643       O652   1.800       .  S
C644        O657   1.261       .  A
C644        C717   1.488       .  S
O645        C655   1.261       .  A
O645       Al647   1.909       .  S
O646        C659   1.268       .  A
O646       Al656   1.926       .  S
Al647       O660   1.897       .  S
Al647       O657   1.910       .  S
Al647       O652   1.789       .  S
O648        C655   1.262       .  A
O648       Al656   1.907       .  S
O649        C658   1.267       .  A
O649       Al656   1.920       .  S
O650       Al656   1.871       .  S
O651        C658   1.272       .  A
O652       Al656   1.776       .  S
O653        C654   1.270       .  A
C654       C1296   1.497       .  S
C655        C744   1.469       .  S
C658        C732   1.519       .  S
C659        O660   1.260       .  A
C659       C1200   1.488       .  S
O661        C676   1.247       .  A
O661      Al2525   1.849   1_554  S
C662        O672   1.268       .  A
C662        O663   1.249       .  A
C662       C1368   1.465       .  S
O663       Al665   1.822       .  S
O664        C666   1.264       .  A
O664       Al665   1.900       .  S
Al665       O673   1.903       .  S
Al665       O675   1.909       .  S
Al665       O674   1.783       .  S
C666        O679   1.268       .  A
C666        C876   1.479       .  S
O667        C677   1.245       .  A
O667       Al669   1.858       .  S
O668        C681   1.284       .  A
O668       Al678   2.002       .  S
Al669       O679   1.920       .  S
Al669      O2517   1.840       .  S
Al669      O2538   1.862       .  S
Al669       O674   1.786       .  S
O670        C677   1.258       .  A
O670       Al678   1.933       .  S
O671        C680   1.269       .  A
O671       Al678   1.940       .  S
O672       Al678   1.951       .  S
O673        C680   1.263       .  A
O674       Al678   1.795       .  S
O675       C2532   1.264       .  A
C676       O2531   1.259   1_554  A
C676       C1380   1.475       .  S
C677       C1716   1.480       .  S
C680        C705   1.507       .  S
C681       O2538   1.260       .  A
C681       C3404   1.495       .  S
O682       C2537   1.262       .  A
O682      Al2525   1.864   1_554  S
O683        C698   1.250       .  A
O683       Al691   1.868       .  S
C684        O694   1.274       .  A
C684        O685   1.255       .  A
C684       C1305   1.462       .  S
O685       Al687   1.888       .  S
O686        C688   1.261       .  A
O686       Al687   1.890       .  S
Al687       O695   1.911       .  S
Al687       O697   1.914       .  S
Al687       O696   1.789       .  S
C688        O701   1.266       .  A
C688        C720   1.470       .  S
O689        C699   1.252       .  A
O689       Al691   1.873       .  S
O690        C703   1.279       .  A
O690       Al700   1.957       .  S
Al691       O704   1.905       .  S
Al691       O701   1.933       .  S
Al691       O696   1.771       .  S
O692        C699   1.264       .  A
O692       Al700   1.940       .  S
O693        C702   1.273       .  A
O693       Al700   1.973       .  S
O694       Al700   1.947       .  S
O695        C702   1.269       .  A
O696       Al700   1.785       .  S
O697        C698   1.258       .  A
C698       C1320   1.479       .  S
C699        C789   1.471       .  S
C702        C708   1.521       .  S
C703        O704   1.265       .  A
C703       C1005   1.491       .  S
C705        C706   1.406       .  A
C705        C710   1.414       .  A
C706        C707   1.402       .  A
C706        H715   1.084       .  S
C707        C708   1.422       .  A
C707        S711   1.799       .  S
C708        C709   1.420       .  A
C709        C710   1.422       .  A
C709        H716   1.083       .  S
C710        S712   1.801       .  S
S711        H714   1.408       .  S
S712        H713   1.406       .  S
C717        C718   1.408       .  A
C717        C722   1.417       .  A
C718        C719   1.399       .  A
C718        H727   1.084       .  S
C719        C720   1.410       .  A
C719        S723   1.809       .  S
C720        C721   1.403       .  A
C721        C722   1.404       .  A
C721        H728   1.085       .  S
C722        S724   1.802       .  S
S723        H726   1.401       .  S
S724        H725   1.401       .  S
C729        C730   1.414       .  A
C729        C734   1.423       .  A
C730        C731   1.416       .  A
C730        H739   1.083       .  S
C731        C732   1.420       .  A
C731        S735   1.799       .  S
C732        C733   1.413       .  A
C733        C734   1.407       .  A
C733        H740   1.083       .  S
C734        S736   1.802       .  S
S735        H738   1.407       .  S
S736        H737   1.407       .  S
C741        C742   1.402       .  A
C741        C746   1.410       .  A
C742        C743   1.396       .  A
C742        H751   1.084       .  S
C743        C744   1.406       .  A
C743        S747   1.795       .  S
C744        C745   1.403       .  A
C745        C746   1.402       .  A
C745        H752   1.082       .  S
C746        S748   1.801       .  S
S747        H750   1.407       .  S
S748        H749   1.406       .  S
C753        C754   1.394   1_565  A
C753        C758   1.434       .  A
C754        C755   1.405       .  A
C754        H763   1.084       .  S
C755        C756   1.427       .  A
C755        S759   1.786       .  S
C756        C757   1.396       .  A
C757        C758   1.409   1_545  A
C757        H764   1.084       .  S
C758        S760   1.801       .  S
S759        H762   1.407       .  S
S760        H761   1.408       .  S
C765        C766   1.408       .  A
C765        C770   1.415       .  A
C766        C767   1.400       .  A
C766        H775   1.082       .  S
C767        C768   1.410       .  A
C767        S771   1.809       .  S
C768        C769   1.405       .  A
C769        C770   1.400       .  A
C769        H776   1.084       .  S
C770        S772   1.803       .  S
S771        H774   1.407       .  S
S772        H773   1.400       .  S
C777        C778   1.408       .  A
C777        C782   1.411       .  A
C778        C779   1.407       .  A
C778        H787   1.083       .  S
C779        C780   1.420       .  A
C779        S783   1.800       .  S
C780        C781   1.414       .  A
C781        C782   1.403       .  A
C781        H788   1.083       .  S
C782        S784   1.804       .  S
S783        H786   1.408       .  S
S784        H785   1.407       .  S
C789        C790   1.406       .  A
C789        C794   1.406       .  A
C790        C791   1.401       .  A
C790        H799   1.084       .  S
C791        C792   1.411       .  A
C791        S795   1.805       .  S
C792        C793   1.411       .  A
C793        C794   1.401       .  A
C793        H800   1.081       .  S
C794        S796   1.805       .  S
S795        H798   1.407       .  S
S796        H797   1.405       .  S
C801       C2378   1.487       .  S
C801        C802   1.407       .  A
C801        C806   1.413       .  A
C802        C803   1.408       .  A
C802        H811   1.084       .  S
C803        C804   1.413       .  A
C803        S807   1.802       .  S
C804        C805   1.408       .  A
C805        C806   1.408       .  A
C805        H812   1.084       .  S
C806       S2664   1.804       .  S
S807        H810   1.405       .  S
S808       C2662   1.802   1_554  S
S808        H809   1.406       .  S
C813        C814   1.411       .  A
C813        C818   1.400       .  A
C814        C815   1.405       .  A
C814        H823   1.079       .  S
C815        C816   1.405       .  A
C815        S819   1.807       .  S
C816        C817   1.412       .  A
C817        C818   1.395       .  A
C817        H824   1.083       .  S
C818        S820   1.805       .  S
S819        H822   1.406       .  S
S820       H2677   1.404       .  S
H821       S2676   1.404       .  S
C825        C826   1.405       .  A
C825        C830   1.421       .  A
C826        C827   1.397       .  A
C826        H835   1.081       .  S
C827        C828   1.405       .  A
C827        S831   1.797       .  S
C828        C829   1.402       .  A
C829        C830   1.402       .  A
C829        H836   1.084       .  S
C830        S832   1.804       .  S
S831        H834   1.406       .  S
S832        H833   1.408       .  S
C837        C838   1.398       .  A
C837        C842   1.427       .  A
C838        C839   1.403   1_545  A
C838        H847   1.084       .  S
C839        C840   1.423       .  A
C839        S843   1.795       .  S
C840        C841   1.403   1_565  A
C841        C842   1.419       .  A
C841        H848   1.082       .  S
C842        S844   1.808       .  S
S843        H846   1.406       .  S
S844        H845   1.407       .  S
C849        C850   1.419       .  A
C849        C854   1.405       .  A
C850        C851   1.386       .  A
C850        H859   1.080       .  S
C851        C852   1.394       .  A
C851        S855   1.802       .  S
C852        C853   1.419       .  A
C853        C854   1.405       .  A
C853        H860   1.084       .  S
C854        S856   1.801       .  S
S855        H858   1.407       .  S
S856        H857   1.405       .  S
C861        C862   1.396       .  A
C861        C866   1.426       .  A
C862        C863   1.396       .  A
C862        H871   1.083       .  S
C863        C864   1.418       .  A
C863        S867   1.811       .  S
C864        C865   1.390       .  A
C865        C866   1.395       .  A
C865        H872   1.083       .  S
C866        S868   1.812       .  S
S867        H870   1.406       .  S
S868        H869   1.407       .  S
C873        C874   1.412       .  A
C873        C878   1.413       .  A
C874        C875   1.404       .  A
C874        H883   1.083       .  S
C875        C876   1.412       .  A
C875        S879   1.805       .  S
C876        C877   1.406       .  A
C877        C878   1.390       .  A
C877        H884   1.083       .  S
C878        S880   1.803       .  S
S879        H882   1.403       .  S
S880        H881   1.408       .  S
C885        C886   1.410       .  A
C885        C890   1.416       .  A
C886        C887   1.396       .  A
C886        H895   1.083       .  S
C887        C888   1.406       .  A
C887        S891   1.805       .  S
C888        C889   1.400       .  A
C889        C890   1.397       .  A
C889        H896   1.085       .  S
C890        S892   1.803       .  S
S891        H894   1.406       .  S
S892        H893   1.408       .  S
C897        C898   1.413       .  A
C897        C902   1.419       .  A
C898       C2755   1.408       .  A
C898        H907   1.084       .  S
C899        C900   1.415       .  A
C899       C2754   1.407   1_554  A
C899        S903   1.803       .  S
C900        C901   1.405       .  A
C901       C2758   1.405   1_554  A
C901        H908   1.083       .  S
C902       C2757   1.403       .  A
C902        S904   1.800       .  S
S903        H906   1.407       .  S
S904        H905   1.408       .  S
C909        C910   1.402       .  A
C909        C914   1.415       .  A
C910        C911   1.395       .  A
C910        H919   1.080       .  S
C911        C912   1.412       .  A
C911        S915   1.810       .  S
C912        C913   1.405       .  A
C913        C914   1.409       .  A
C913        H920   1.083       .  S
C914        S916   1.807       .  S
S915        H918   1.406       .  S
S916        H917   1.407       .  S
C921        C922   1.401       .  A
C921        C926   1.410       .  A
C922        C923   1.396       .  A
C922        H931   1.084       .  S
C923        C924   1.416       .  A
C923        S927   1.804       .  S
C924        C925   1.404       .  A
C925        C926   1.396       .  A
C925        H932   1.081       .  S
C926        S928   1.809       .  S
S927        H930   1.408       .  S
S928        H929   1.407       .  S
C933        C934   1.409       .  A
C933        C938   1.419       .  A
C934        C935   1.398       .  A
C934        H943   1.083       .  S
C935        C936   1.408       .  A
C935        S939   1.801       .  S
C936        C937   1.401       .  A
C937        C938   1.401       .  A
C937        H944   1.083       .  S
C938       S2796   1.808       .  S
S939        H942   1.405       .  S
S940       C2794   1.809       .  S
S940        H941   1.407       .  S
C945        C946   1.411       .  A
C945        C950   1.423       .  A
C946        C947   1.409   1_565  A
C946        H955   1.084       .  S
C947        C948   1.414       .  A
C947        S951   1.802       .  S
C948        C949   1.405       .  A
C949        C950   1.411   1_545  A
C949        H956   1.082       .  S
C950        S952   1.806       .  S
S951        H954   1.407       .  S
S952        H953   1.407   1_565  S
C957        C958   1.396       .  A
C957        C962   1.408       .  A
C958        C959   1.401       .  A
C958        H967   1.084       .  S
C959        C960   1.424       .  A
C959        S963   1.800       .  S
C960        C961   1.407       .  A
C961        C962   1.402       .  A
C961        H968   1.083       .  S
C962        S964   1.805       .  S
S963        H966   1.408       .  S
S964        H965   1.406       .  S
C969        C970   1.407       .  A
C969        C974   1.416       .  A
C970        C971   1.401       .  A
C970        H979   1.084       .  S
C971        C972   1.414       .  A
C971        S975   1.805       .  S
C972        C973   1.402       .  A
C973        C974   1.399       .  A
C973        H980   1.084       .  S
C974        S976   1.802       .  S
S975        H978   1.407       .  S
S976        H977   1.407       .  S
C981        C982   1.417       .  A
C981        C986   1.408       .  A
C982        C983   1.416       .  A
C982        H991   1.082       .  S
C983        C984   1.411       .  A
C983        S987   1.802       .  S
C984        C985   1.413       .  A
C985        C986   1.410       .  A
C985        H992   1.081       .  S
C986        S988   1.801       .  S
S987        H990   1.406       .  S
S988        H989   1.406       .  S
C993        C994   1.410       .  A
C993        C998   1.419       .  A
C994        C995   1.395       .  A
C994       H2859   1.084       .  S
C995        C996   1.405       .  A
C995       S2855   1.804       .  S
C996        C997   1.399       .  A
C997        C998   1.398       .  A
C997       H1004   1.084       .  S
C998       S1000   1.811       .  S
S999       C2851   1.808       .  S
S999       H1002   1.403       .  S
S1000      H1001   1.407       .  S
H1003      C2850   1.083       .  S
C1005      C1006   1.403       .  A
C1005      C1010   1.417       .  A
C1006      C1007   1.408       .  A
C1006      H1015   1.084       .  S
C1007      C1008   1.420       .  A
C1007      S1011   1.804       .  S
C1008      C1009   1.407       .  A
C1009      C1010   1.413       .  A
C1009      H1016   1.083       .  S
C1010      S1012   1.804       .  S
S1011      H1014   1.408       .  S
S1012      H1013   1.406       .  S
C1017      C1018   1.406       .  A
C1017      C1022   1.405       .  A
C1018      C1019   1.404       .  A
C1018      H1027   1.085       .  S
C1019      C1020   1.412       .  A
C1019      S1023   1.803       .  S
C1020      C1021   1.404       .  A
C1021      C1022   1.389       .  A
C1021      H1028   1.084       .  S
C1022      S2880   1.804       .  S
S1023      H1026   1.406       .  S
S1024      C2878   1.804       .  S
S1024      H1025   1.407       .  S
C1029      C1030   1.412       .  A
C1029      C1034   1.402       .  A
C1030      C1031   1.403       .  A
C1030      H1039   1.082       .  S
C1031      C1032   1.407       .  A
C1031      S1035   1.799       .  S
C1032      C1033   1.408       .  A
C1033      C1034   1.395       .  A
C1033      H1040   1.079       .  S
C1034      S1036   1.800       .  S
S1035      H1038   1.406       .  S
S1036      H1037   1.406       .  S
C1041      C1042   1.399       .  A
C1041      C1046   1.411       .  A
C1042      C1043   1.389       .  A
C1042      H1051   1.085       .  S
C1043      C1044   1.410       .  A
C1043      S1047   1.801   1_554  S
C1044      C1045   1.402       .  A
C1045      C1046   1.402       .  A
C1045      H1052   1.084       .  S
C1046      S1048   1.801       .  S
S1047      H1050   1.405       .  S
S1048      H1049   1.405       .  S
C1053      C1054   1.407       .  A
C1053      C1058   1.418       .  A
C1054      C2911   1.406       .  A
C1054      H1063   1.083       .  S
C1055      C1056   1.420       .  A
C1055      C2910   1.405   1_554  A
C1055      S1059   1.804       .  S
C1056      C1057   1.410       .  A
C1057      C2914   1.414   1_554  A
C1057      H1064   1.083       .  S
C1058      C2913   1.415       .  A
C1058      S1060   1.802       .  S
S1059      H1062   1.408       .  S
S1060      H1061   1.407       .  S
C1065      C1066   1.405       .  A
C1065      C1070   1.415       .  A
C1066      C1067   1.410       .  A
C1066      H1075   1.084       .  S
C1067      C1068   1.415       .  A
C1067      S1071   1.804       .  S
C1068      C1069   1.405       .  A
C1069      C1070   1.407       .  A
C1069      H1076   1.084       .  S
C1070      S1072   1.803       .  S
S1071      H1074   1.407       .  S
S1072      H1073   1.407       .  S
C1077      C1078   1.408       .  A
C1077      C1082   1.422       .  A
C1078      C1079   1.400       .  A
C1078      H1087   1.084       .  S
C1079      C1080   1.407       .  A
C1079      S1083   1.802       .  S
C1080      C1081   1.397       .  A
C1081      C1082   1.393       .  A
C1081      H2944   1.084       .  S
C1082      S1084   1.804       .  S
S1083      H1086   1.407       .  S
S1084      H1085   1.408       .  S
H1088      C2937   1.085       .  S
C1089      C1090   1.405       .  A
C1089      C1094   1.425       .  A
C1090      C1091   1.400       .  A
C1090      H1099   1.084       .  S
C1091      C1092   1.407       .  A
C1091      S1095   1.799       .  S
C1092      C1093   1.393       .  A
C1093      C1094   1.398       .  A
C1093      H1100   1.084       .  S
C1094      S1096   1.808       .  S
S1095      H1098   1.407       .  S
S1096      H1097   1.407       .  S
C1101      C1102   1.408       .  A
C1101      C1106   1.414       .  A
C1102      C1103   1.392       .  A
C1102      H1111   1.083   1_655  S
C1103      C1104   1.405       .  A
C1103      S1107   1.803       .  S
C1104      C1105   1.408       .  A
C1105      C1106   1.404       .  A
C1105      H1112   1.085       .  S
C1106      S1108   1.803       .  S
S1107      H1110   1.406       .  S
S1108      H1109   1.407   1_655  S
C1113      C1114   1.396       .  A
C1113      C1118   1.408       .  A
C1114      C1115   1.400   1_455  A
C1114      H1123   1.084       .  S
C1115      C1116   1.428       .  A
C1115      S1119   1.814       .  S
C1116      C1117   1.408   1_655  A
C1117      C1118   1.399       .  A
C1117      H1124   1.084       .  S
C1118      S1120   1.802       .  S
S1119      H1122   1.407       .  S
S1120      H1121   1.407       .  S
C1125      C1126   1.405       .  A
C1125      C1130   1.414       .  A
C1126      C1127   1.406       .  A
C1126      H1135   1.084       .  S
C1127      C1128   1.414       .  A
C1127      S2987   1.802   1_554  S
C1128      C2136   1.484       .  S
C1128      C1129   1.406       .  A
C1129      C1130   1.408       .  A
C1129      H1136   1.084       .  S
C1130      S1132   1.801       .  S
S1131      C2983   1.802       .  S
S1131      H1134   1.406       .  S
S1132      H1133   1.405       .  S
C1137      C1138   1.399       .  A
C1137      C1142   1.405       .  A
C1138      C1139   1.395       .  A
C1138      H1147   1.085       .  S
C1139      C1140   1.417       .  A
C1139      S1143   1.803       .  S
C1140      C1141   1.411       .  A
C1141      C1142   1.399       .  A
C1141      H1148   1.084       .  S
C1142      S3000   1.800       .  S
S1143      H1146   1.408       .  S
S1144      C2998   1.803       .  S
S1144      H3001   1.400       .  S
H1145      S3000   1.404       .  S
C1149      C1150   1.405       .  A
C1149      C1154   1.413       .  A
C1150      C1151   1.407   1_545  A
C1150      H1159   1.081       .  S
C1151      C1152   1.423       .  A
C1151      S1155   1.809       .  S
C1152      C1153   1.414       .  A
C1153      C1154   1.412   1_565  A
C1153      H1160   1.083       .  S
C1154      S1156   1.802       .  S
S1155      H1158   1.407   1_565  S
S1156      H1157   1.407       .  S
C1161      C1162   1.404       .  A
C1161      C1166   1.405       .  A
C1162      C1163   1.403       .  A
C1162      H1171   1.084       .  S
C1163      C1164   1.418   1_655  A
C1163      S3023   1.802       .  S
C1164      C1165   1.410       .  A
C1165      C1166   1.399   1_455  A
C1165      H1172   1.082       .  S
C1166      S1168   1.807       .  S
S1167      C3019   1.802       .  S
S1167      H1170   1.407   1_655  S
S1168      H1169   1.407   1_655  S
C1173      C1174   1.398       .  A
C1173      C1178   1.408       .  A
C1174      C1175   1.396   1_455  A
C1174      H1183   1.084       .  S
C1175      C1176   1.422       .  A
C1175      S1179   1.805       .  S
C1176      C1177   1.411   1_655  A
C1177      C1178   1.403       .  A
C1177      H1184   1.083       .  S
C1178      S1180   1.802       .  S
S1179      H1182   1.408       .  S
S1180      H1181   1.407       .  S
C1185      C1186   1.401       .  A
C1185      C1190   1.414       .  A
C1186      C1187   1.394       .  A
C1186      H3051   1.084       .  S
C1187      C1188   1.418       .  A
C1187      S3047   1.807       .  S
C1188      C1189   1.405       .  A
C1189      C1190   1.404       .  A
C1189      H1196   1.083       .  S
C1190      S1192   1.799       .  S
S1191      C3043   1.807       .  S
S1191      H1194   1.402       .  S
S1192      H1193   1.406       .  S
H1195      C3042   1.084       .  S
C1197      C1198   1.415       .  A
C1197      C1202   1.404       .  A
C1198      C1199   1.408       .  A
C1198      H1207   1.084       .  S
C1199      C1200   1.407       .  A
C1199      S1203   1.797       .  S
C1200      C1201   1.409       .  A
C1201      C1202   1.398       .  A
C1201      H1208   1.078       .  S
C1202      S1204   1.797       .  S
S1203      H1206   1.407       .  S
S1204      H1205   1.406       .  S
C1209      C1210   1.404       .  A
C1209      C1214   1.422       .  A
C1210      C1211   1.404       .  A
C1210      H1219   1.084       .  S
C1211      C1212   1.410       .  A
C1211      S1215   1.796       .  S
C1212      C1213   1.389       .  A
C1213      C1214   1.391       .  A
C1213      H1220   1.082       .  S
C1214      S1216   1.801       .  S
S1215      H1218   1.406       .  S
S1216      H1217   1.408       .  S
C1221      C1222   1.411       .  A
C1221      C1226   1.413       .  A
C1222      C1223   1.416       .  A
C1222      H1231   1.083       .  S
C1223      C1224   1.411       .  A
C1223      S1227   1.805       .  S
C1224      C1225   1.410       .  A
C1225      C1226   1.411       .  A
C1225      H1232   1.084       .  S
C1226      S1228   1.803       .  S
S1227      H1230   1.407       .  S
S1228      H1229   1.407       .  S
C1233      C1234   1.412       .  A
C1233      C1238   1.420       .  A
C1234      C1235   1.398       .  A
C1234      H1243   1.082       .  S
C1235      C1236   1.400       .  A
C1235      S1239   1.807   1_655  S
C1236      C1237   1.396       .  A
C1237      C1238   1.399       .  A
C1237      H3100   1.084       .  S
C1238      S3096   1.810       .  S
S1239      H1242   1.407   1_455  S
S1240      C3094   1.809       .  S
S1240      H1241   1.407   1_556  S
H1244      C3093   1.083       .  S
C1245      C1246   1.408       .  A
C1245      C1250   1.414       .  A
C1246      C1247   1.413       .  A
C1246      H1255   1.084       .  S
C1247      C1248   1.415       .  A
C1247      S1251   1.799       .  S
C1248      C1249   1.405       .  A
C1249      C1250   1.404       .  A
C1249      H1256   1.084       .  S
C1250      S1252   1.800       .  S
S1251      H1254   1.405       .  S
S1252      H1253   1.406       .  S
C1257      C1258   1.407       .  A
C1257      C1262   1.413       .  A
C1258      C1259   1.393       .  A
C1258      H1267   1.084       .  S
C1259      C1260   1.404       .  A
C1259      S1263   1.803       .  S
C1260      C1261   1.406       .  A
C1261      C1262   1.401       .  A
C1261      H1268   1.085       .  S
C1262      S1264   1.804       .  S
S1263      H1266   1.406       .  S
S1264      H1265   1.407       .  S
C1269      C1270   1.408       .  A
C1269      C1274   1.421       .  A
C1270      C1271   1.400       .  A
C1270      H1279   1.084       .  S
C1271      C1272   1.409       .  A
C1271      S1275   1.803       .  S
C1272      C1273   1.398       .  A
C1273      C1274   1.394       .  A
C1273      H1280   1.086       .  S
C1274      S1276   1.804       .  S
S1275      H1278   1.407       .  S
S1276      H1277   1.408       .  S
C1281      C1282   1.411       .  A
C1281      C1286   1.426       .  A
C1282      C3139   1.409       .  A
C1282      H1291   1.084       .  S
C1283      C1284   1.417       .  A
C1283      C3138   1.408   1_554  A
C1283      S1287   1.803       .  S
C1284      C1285   1.406       .  A
C1285      C3142   1.411   1_554  A
C1285      H1292   1.084       .  S
C1286      C3141   1.412       .  A
C1286      S1288   1.800       .  S
S1287      H1290   1.407       .  S
S1288      H1289   1.402       .  S
C1293      C1294   1.401       .  A
C1293      C1298   1.412       .  A
C1294      C1295   1.403       .  A
C1294      H1303   1.084       .  S
C1295      C1296   1.419       .  A
C1295      S1299   1.797       .  S
C1296      C1297   1.409       .  A
C1297      C1298   1.405       .  A
C1297      H1304   1.084       .  S
C1298      S3156   1.801       .  S
S1299      H1302   1.407       .  S
S1300      C3154   1.802   1_554  S
S1300      H1301   1.405       .  S
C1305      C1306   1.398       .  A
C1305      C1310   1.407       .  A
C1306      C1307   1.394       .  A
C1306      H1315   1.079       .  S
C1307      C1308   1.418       .  A
C1307      S1311   1.809       .  S
C1308      C1309   1.412       .  A
C1309      C1310   1.408       .  A
C1309      H1316   1.082       .  S
C1310      S1312   1.804       .  S
S1311      H1314   1.404       .  S
S1312      H1313   1.407       .  S
C1317      C1318   1.407       .  A
C1317      C1322   1.403       .  A
C1318      C1319   1.397       .  A
C1318      H1327   1.078       .  S
C1319      C1320   1.411       .  A
C1319      S1323   1.804       .  S
C1320      C1321   1.411       .  A
C1321      C1322   1.394       .  A
C1321      H1328   1.083       .  S
C1322      S1324   1.796       .  S
S1323      H1326   1.407       .  S
S1324      H1325   1.406       .  S
C1329      C1330   1.411       .  A
C1329      C1334   1.415       .  A
C1330      C1331   1.394       .  A
C1330      H1339   1.082       .  S
C1331      C1332   1.401       .  A
C1331      S1335   1.798       .  S
C1332      C1333   1.401       .  A
C1333      C1334   1.397       .  A
C1333      H1340   1.084       .  S
C1334      S3192   1.803   1_554  S
S1335      H1338   1.406       .  S
S1336      C3190   1.803       .  S
S1336      H3193   1.408       .  S
H1337      S3192   1.408       .  S
C1341      C1342   1.403       .  A
C1341      C1346   1.416       .  A
C1342      C1343   1.393       .  A
C1342      H1351   1.083       .  S
C1343      C1344   1.414       .  A
C1343      S1347   1.800       .  S
C1344      C1345   1.406       .  A
C1345      C1346   1.406       .  A
C1345      H1352   1.082       .  S
C1346      S3204   1.807   1_554  S
S1347      H1350   1.397       .  S
S1348      C3202   1.808       .  S
S1348      H1349   1.407       .  S
C1353      C1354   1.407       .  A
C1353      C1358   1.414       .  A
C1354      C1355   1.406       .  A
C1354      H1363   1.084       .  S
C1355      C1356   1.413       .  A
C1355      S1359   1.804       .  S
C1356      C1357   1.407       .  A
C1357      C1358   1.409       .  A
C1357      H1364   1.084       .  S
C1358      S1360   1.802       .  S
S1359      H1362   1.405       .  S
S1360      H1361   1.405       .  S
C1365      C1366   1.406       .  A
C1365      C1370   1.423       .  A
C1366      C1367   1.387       .  A
C1366      H1375   1.082       .  S
C1367      C1368   1.406       .  A
C1367      S1371   1.805       .  S
C1368      C1369   1.401       .  A
C1369      C1370   1.410       .  A
C1369      H1376   1.083       .  S
C1370      S1372   1.807       .  S
S1371      H1374   1.407       .  S
S1372      H1373   1.407       .  S
C1377      C1378   1.418       .  A
C1377      C1382   1.398       .  A
C1378      C1379   1.399       .  A
C1378      H1387   1.082       .  S
C1379      C1380   1.403       .  A
C1379      S1383   1.802       .  S
C1380      C1381   1.416       .  A
C1381      C1382   1.388       .  A
C1381      H1388   1.083       .  S
C1382      S1384   1.801       .  S
S1383      H1386   1.407       .  S
S1384      H1385   1.407       .  S
C1389      C1390   1.416       .  A
C1389      C1394   1.406       .  A
C1390      C1391   1.403       .  A
C1390      H1399   1.081       .  S
C1391      C1392   1.403       .  A
C1391      S1395   1.803       .  S
C1392      C1393   1.417       .  A
C1393      C1394   1.410       .  A
C1393      H1400   1.082       .  S
C1394      S1396   1.802       .  S
S1395      H1398   1.406       .  S
S1396      H1397   1.405       .  S
C1401      C1402   1.405       .  A
C1401      C1406   1.412       .  A
C1402      C1403   1.410       .  A
C1402      H1411   1.084       .  S
C1403      C1404   1.415       .  A
C1403      S1407   1.803       .  S
C1404      C1405   1.404       .  A
C1405      C1406   1.409       .  A
C1405      H1412   1.081       .  S
C1406      S1408   1.807       .  S
S1407      H1410   1.406       .  S
S1408      H1409   1.407       .  S
C1413      C1414   1.410       .  A
C1413      C1418   1.409   1_655  A
C1414      C1415   1.397   1_655  A
C1414      H1423   1.084       .  S
C1415      C1416   1.406       .  A
C1415      S1419   1.802       .  S
C1416      C1417   1.405       .  A
C1417      C1418   1.392       .  A
C1417      H1424   1.078       .  S
C1418      S1420   1.805       .  S
S1419      H1422   1.406       .  S
S1420      H1421   1.408   1_455  S
C1425      C1426   1.410       .  A
C1425      C1430   1.403       .  A
C1426      C1427   1.406       .  A
C1426      H1435   1.084       .  S
C1427      C1428   1.412   1_655  A
C1427      S1431   1.803       .  S
C1428      C1429   1.410   1_455  A
C1429      C1430   1.393       .  A
C1429      H1436   1.081   1_655  S
C1430      S1432   1.804       .  S
S1431      H1434   1.406   1_655  S
S1432      H1433   1.406       .  S
C1437      C2004   1.490       .  S
C1437      C1438   1.405       .  A
C1437      C1442   1.415       .  A
C1438      C1439   1.409       .  A
C1438      H1447   1.084       .  S
C1439      C1440   1.415       .  A
C1439      S1443   1.803       .  S
C1440      C1441   1.405       .  A
C1441      C1442   1.409       .  A
C1441      H1448   1.084       .  S
C1442      S1444   1.803       .  S
S1443      H1446   1.407       .  S
S1444      H1445   1.408       .  S
C1449      C1450   1.411       .  A
C1449      C1454   1.412   1_655  A
C1450      C1451   1.397   1_655  A
C1450      H1459   1.083       .  S
C1451      C1452   1.406       .  A
C1451      S1455   1.803       .  S
C1452      C1453   1.405       .  A
C1453      C1454   1.400       .  A
C1453      H1460   1.079       .  S
C1454      S1456   1.803       .  S
S1455      H1458   1.406       .  S
S1456      H1457   1.407   1_455  S
C1461      C1462   1.410       .  A
C1461      C1466   1.406       .  A
C1462      C1463   1.407       .  A
C1462      H1471   1.084       .  S
C1463      C1464   1.415   1_655  A
C1463      S1467   1.802       .  S
C1464      C1465   1.412   1_455  A
C1465      C1466   1.397       .  A
C1465      H1472   1.083   1_655  S
C1466      S1468   1.803       .  S
S1467      H1470   1.407   1_655  S
S1468      H1469   1.405       .  S
C1473      C1474   1.397       .  A
C1473      C1478   1.410       .  A
C1474      C1475   1.403       .  A
C1474      H1483   1.083       .  S
C1475      C1476   1.420       .  A
C1475      S1479   1.806       .  S
C1476      C1477   1.403       .  A
C1477      C1478   1.393       .  A
C1477      H1484   1.083       .  S
C1478      S1480   1.798       .  S
S1479      H1482   1.407       .  S
S1480      H1481   1.399       .  S
C1485      C1486   1.405       .  A
C1485      C1490   1.413       .  A
C1486      C1487   1.406       .  A
C1486      H1495   1.081       .  S
C1487      C1488   1.420       .  A
C1487      S1491   1.807       .  S
C1488      C1489   1.412       .  A
C1489      C1490   1.409       .  A
C1489      H1496   1.084       .  S
C1490      S1492   1.802       .  S
S1491      H1494   1.406       .  S
S1492      H1493   1.407       .  S
C1497      C1498   1.410       .  A
C1497      C1502   1.424       .  A
C1498      C1499   1.400       .  A
C1498      H1507   1.082       .  S
C1499      C1500   1.403       .  A
C1499      S1503   1.805       .  S
C1500      C1501   1.396       .  A
C1501      C1502   1.399       .  A
C1501      H3364   1.084       .  S
C1502      S3360   1.810       .  S
S1503      H1506   1.407       .  S
S1504      C3358   1.810       .  S
S1504      H1505   1.407       .  S
H1508      C3357   1.084       .  S
C1509      C1510   1.403       .  A
C1509      C1514   1.414       .  A
C1510      C1511   1.399       .  A
C1510      H1519   1.084       .  S
C1511      C1512   1.416       .  A
C1511      S1515   1.805       .  S
C1512      C1513   1.404       .  A
C1513      C1514   1.402       .  A
C1513      H1520   1.081       .  S
C1514      S1516   1.808       .  S
S1515      H1518   1.407       .  S
S1516      H1517   1.407       .  S
C1521      C2229   1.494       .  S
C1521      C1522   1.408       .  A
C1521      C1526   1.415       .  A
C1522      C1523   1.410       .  A
C1522      H1531   1.084       .  S
C1523      C1524   1.414       .  A
C1523      S1527   1.801       .  S
C1524      C1525   1.408       .  A
C1525      C1526   1.411       .  A
C1525      H1532   1.084       .  S
C1526      S3384   1.803       .  S
S1527      H1530   1.405       .  S
S1528      C3382   1.803   1_554  S
S1528      H1529   1.405       .  S
C1533      C1534   1.410       .  A
C1533      C1538   1.414       .  A
C1534      C1535   1.399       .  A
C1534      H1543   1.084       .  S
C1535      C1536   1.406       .  A
C1535      S1539   1.805       .  S
C1536      C1537   1.403       .  A
C1537      C1538   1.400       .  A
C1537      H1544   1.084       .  S
C1538      S1540   1.804       .  S
S1539      H1542   1.406       .  S
S1540      H1541   1.407       .  S
C1545      C1546   1.402       .  A
C1545      C1550   1.415       .  A
C1546      C1547   1.409       .  A
C1546      H1555   1.083       .  S
C1547      C1548   1.417       .  A
C1547      S1551   1.808       .  S
C1548      C2537   1.492       .  S
C1548      C1549   1.405       .  A
C1549      C1550   1.409       .  A
C1549      H1556   1.084       .  S
C1550      S1552   1.803       .  S
S1551      H1554   1.407       .  S
S1552      H1553   1.407       .  S
C1557      C1558   1.407       .  A
C1557      C1562   1.407       .  A
C1558      C1559   1.400       .  A
C1558      H1567   1.084       .  S
C1559      C1560   1.410       .  A
C1559      S1563   1.805       .  S
C1560      C1561   1.406       .  A
C1561      C1562   1.404       .  A
C1561      H1568   1.081       .  S
C1562      S1564   1.802       .  S
S1563      H1566   1.404       .  S
S1564      H1565   1.407       .  S
C1569      C1570   1.411       .  A
C1569      C1574   1.426       .  A
C1570      C1571   1.407       .  A
C1570      H1579   1.084       .  S
C1571      C1572   1.416       .  A
C1571      S1575   1.803       .  S
C1572      C1573   1.409       .  A
C1573      C1574   1.413       .  A
C1573      H1580   1.084       .  S
C1574      S1576   1.801       .  S
S1575      H1578   1.408       .  S
S1576      H1577   1.403       .  S
C1581      C1582   1.408       .  A
C1581      C1586   1.410       .  A
C1582      C1583   1.400       .  A
C1582      H1591   1.082       .  S
C1583      C1584   1.412       .  A
C1583      S1587   1.803       .  S
C1584      C1585   1.410       .  A
C1585      C1586   1.394       .  A
C1585      H1592   1.084       .  S
C1586      S1588   1.807       .  S
S1587      H1590   1.408       .  S
S1588      H1589   1.408       .  S
C1593      C1594   1.403       .  A
C1593      C1598   1.406       .  A
C1594      C1595   1.396       .  A
C1594      H1603   1.085       .  S
C1595      C1596   1.410       .  A
C1595      S1599   1.804       .  S
C1596      C1597   1.406       .  A
C1597      C1598   1.402       .  A
C1597      H3460   1.083       .  S
C1598      S3456   1.806       .  S
S1599      H1602   1.402   1_455  S
S1600      C3454   1.806       .  S
S1600      H1601   1.407       .  S
H1604      C3453   1.083       .  S
C1605      C1606   1.406       .  A
C1605      C1610   1.416       .  A
C1606      C1607   1.410       .  A
C1606      H1615   1.083       .  S
C1607      C1608   1.414       .  A
C1607      S1611   1.807       .  S
C1608      C1609   1.404       .  A
C1609      C1610   1.408       .  A
C1609      H1616   1.084       .  S
C1610      S1612   1.803       .  S
S1611      H1614   1.407       .  S
S1612      H1613   1.407       .  S
C1617      C1618   1.413       .  A
C1617      C1622   1.401       .  A
C1618      C1619   1.402       .  A
C1618      H1627   1.083       .  S
C1619      C1620   1.404       .  A
C1619      S1623   1.797       .  S
C1620      C1621   1.411       .  A
C1621      C1622   1.393       .  A
C1621      H1628   1.082       .  S
C1622      S1624   1.801       .  S
S1623      H1626   1.407       .  S
S1624      H1625   1.406       .  S
C1629      C1630   1.403       .  A
C1629      C1634   1.404       .  A
C1630      C1631   1.403       .  A
C1630      H1639   1.084       .  S
C1631      C1632   1.413       .  A
C1631      S1635   1.799       .  S
C1632      C1633   1.406       .  A
C1633      C1634   1.388       .  A
C1633      H1640   1.084       .  S
C1634      S1636   1.806       .  S
S1635      H1638   1.407       .  S
S1636      H3493   1.408       .  S
H1637      S3492   1.408       .  S
C1641      C1642   1.404       .  A
C1641      C1646   1.413       .  A
C1642      C1643   1.393       .  A
C1642      H1651   1.083       .  S
C1643      C1644   1.409       .  A
C1643      S3503   1.802   1_554  S
C1644      C1645   1.405       .  A
C1645      C1646   1.407       .  A
C1645      H1652   1.083       .  S
C1646      S1648   1.799       .  S
S1647      C3499   1.801       .  S
S1647      H3506   1.404       .  S
S1648      H1649   1.406       .  S
H1650      S3503   1.404       .  S
C1653      C1654   1.413       .  A
C1653      C1658   1.419       .  A
C1654      C1655   1.399       .  A
C1654      H1663   1.083       .  S
C1655      C1656   1.406       .  A
C1655      S3515   1.804       .  S
C1656      C1657   1.405       .  A
C1657      C1658   1.408       .  A
C1657      H1664   1.084       .  S
C1658      S1660   1.801       .  S
S1659      C3511   1.805       .  S
S1659      H1662   1.407       .  S
S1660      H1661   1.405       .  S
C1665      C1666   1.407       .  A
C1665      C1670   1.415       .  A
C1666      C1667   1.408       .  A
C1666      H1675   1.083       .  S
C1667      C1668   1.418       .  A
C1667      S1671   1.807       .  S
C1668      C1669   1.409       .  A
C1669      C1670   1.405       .  A
C1669      H1676   1.084       .  S
C1670      S1672   1.800       .  S
S1671      H1674   1.406       .  S
S1672      H1673   1.407       .  S
C1677      C1678   1.410       .  A
C1677      C1682   1.403       .  A
C1678      C1679   1.394       .  A
C1678      H1687   1.081       .  S
C1679      C1680   1.399       .  A
C1679      S1683   1.796       .  S
C1680      C1681   1.413       .  A
C1681      C1682   1.401       .  A
C1681      H1688   1.081       .  S
C1682      S1684   1.799       .  S
S1683      H1686   1.406       .  S
S1684      H1685   1.405       .  S
C1689      C1690   1.396       .  A
C1689      C1694   1.410       .  A
C1690      C1691   1.395       .  A
C1690      H3555   1.084       .  S
C1691      C1692   1.421       .  A
C1691      S1695   1.809       .  S
C1692      C1693   1.402       .  A
C1693      C1694   1.400       .  A
C1693      H1700   1.084       .  S
C1694      S1696   1.796       .  S
S1695      H1698   1.406       .  S
S1696      H1697   1.405       .  S
H1699      C3546   1.084       .  S
C1701      C1702   1.414       .  A
C1701      C1706   1.419       .  A
C1702      C3559   1.423       .  A
C1702      H1711   1.083       .  S
C1703      C1704   1.419       .  A
C1703      C3558   1.423   1_554  A
C1703      S1707   1.798       .  S
C1704      C1705   1.411   1_554  A
C1705      C3562   1.396       .  A
C1705      H1712   1.083       .  S
C1706      C3561   1.397       .  A
C1706      S1708   1.807       .  S
S1707      H1710   1.407       .  S
S1708      H1709   1.408       .  S
C1713      C1714   1.400       .  A
C1713      C1718   1.412       .  A
C1714      C1715   1.392       .  A
C1714      H1723   1.084       .  S
C1715      C1716   1.417       .  A
C1715      S1719   1.811       .  S
C1716      C1717   1.407       .  A
C1717      C1718   1.407       .  A
C1717      H1724   1.084       .  S
C1718      S1720   1.801       .  S
S1719      H1722   1.407       .  S
S1720      H1721   1.405       .  S
C1725      C1726   1.399       .  A
C1725      C1730   1.410       .  A
C1726      C1727   1.395       .  A
C1726      H1735   1.085       .  S
C1727      C1728   1.419       .  A
C1727      S1731   1.799       .  S
C1728      C1729   1.410       .  A
C1729      C1730   1.404       .  A
C1729      H1736   1.084       .  S
C1730      S1732   1.804       .  S
S1731      H1734   1.403       .  S
S1732      H1733   1.407       .  S
C1737      C1738   1.397       .  A
C1737      C1742   1.408       .  A
C1738      C1739   1.395       .  A
C1738      H1747   1.086       .  S
C1739      C1740   1.424       .  A
C1739      S1743   1.803       .  S
C1740      C1741   1.410       .  A
C1741      C1742   1.402       .  A
C1741      H1748   1.083       .  S
C1742      S1744   1.801       .  S
S1743      H1746   1.408       .  S
S1744      H1745   1.407       .  S
C1749      C1750   1.408       .  A
C1749      C1754   1.425       .  A
C1750      C1751   1.397       .  A
C1750      H1759   1.083       .  S
C1751      C1752   1.405       .  A
C1751      S1755   1.801       .  S
C1752      C1753   1.395       .  A
C1753      C1754   1.397       .  A
C1753      H3616   1.084       .  S
C1754      S1756   1.812       .  S
S1755      H1758   1.407       .  S
S1756      H1757   1.407       .  S
H1760      C3609   1.085       .  S
C1761      C1762   1.406       .  A
C1761      C1766   1.417       .  A
C1762      C1763   1.409       .  A
C1762      H1771   1.084       .  S
C1763      C1764   1.415       .  A
C1763      S1767   1.804       .  S
C1764      C2449   1.490   1_554  S
C1764      C1765   1.405       .  A
C1765      C1766   1.410       .  A
C1765      H1772   1.084   1_554  S
C1766      S1768   1.803       .  S
S1767      H1770   1.406       .  S
S1768      H1769   1.406       .  S
C1773      C1774   1.404       .  A
C1773      C1778   1.413       .  A
C1774      C1775   1.403       .  A
C1774      H1783   1.084       .  S
C1775      C1776   1.416       .  A
C1775      S1779   1.802       .  S
C1776      C1777   1.404       .  A
C1777      C1778   1.397       .  A
C1777      H1784   1.081       .  S
C1778      S1780   1.809       .  S
S1779      H1782   1.406       .  S
S1780      H1781   1.407       .  S
C1785      C1786   1.403       .  A
C1785      C1790   1.410       .  A
C1786      C1787   1.395       .  A
C1786      H1795   1.084       .  S
C1787      C1788   1.413       .  A
C1787      S1791   1.802       .  S
C1788      C1789   1.402       .  A
C1789      C1790   1.398       .  A
C1789      H1796   1.083       .  S
C1790      S1792   1.801       .  S
S1791      H1794   1.407       .  S
S1792      H1793   1.406       .  S
C1797      C2273   1.490       .  S
C1797      C1798   1.405       .  A
C1797      C1802   1.416       .  A
C1798      C1799   1.409       .  A
C1798      H1807   1.082       .  S
C1799      C1800   1.416       .  A
C1799      S1803   1.804       .  S
C1800      C1801   1.405       .  A
C1801      C1802   1.409       .  A
C1801      H1808   1.084       .  S
C1802      S1804   1.804       .  S
S1803      H1806   1.406       .  S
S1804      H1805   1.406       .  S
C1809      C1810   1.408       .  A
C1809      C1814   1.403       .  A
C1810      C1811   1.401       .  A
C1810      H1819   1.085       .  S
C1811      C1812   1.411       .  A
C1811      S1815   1.803       .  S
C1812      C1813   1.407       .  A
C1813      C1814   1.396       .  A
C1813      H1820   1.083       .  S
C1814      S1816   1.804       .  S
S1815      H1818   1.407       .  S
S1816      H1817   1.406       .  S
C1821      C1822   1.411       .  A
C1821      C1826   1.427       .  A
C1822      C1823   1.400       .  A
C1822      H1831   1.083       .  S
C1823      C1824   1.405       .  A
C1823      S1827   1.802       .  S
C1824      C1825   1.397       .  A
C1825      C1826   1.400       .  A
C1825      H1832   1.084       .  S
C1826      S1828   1.813       .  S
S1827      H1830   1.407       .  S
S1828      H1829   1.407       .  S
C1833      C1834   1.414       .  A
C1833      C1838   1.422       .  A
C1834      C1835   1.409       .  A
C1834      H1843   1.083       .  S
C1835      C1836   1.413       .  A
C1835      S1839   1.803       .  S
C1836      C1837   1.409       .  A
C1837      C1838   1.412       .  A
C1837      H1844   1.083       .  S
C1838      S1840   1.799       .  S
S1839      H1842   1.407       .  S
S1840      H1841   1.407       .  S
C1845      C1846   1.400       .  A
C1845      C1850   1.410       .  A
C1846      C1847   1.393       .  A
C1846      H1855   1.085       .  S
C1847      C1848   1.418       .  A
C1847      S1851   1.801       .  S
C1848      C1849   1.406       .  A
C1849      C1850   1.403       .  A
C1849      H1856   1.083       .  S
C1850      S1852   1.803       .  S
S1851      H1854   1.408       .  S
S1852      H1853   1.407       .  S
O1857      C1872   1.256       .  A
O1857     Al1865   1.880       .  S
C1858      O1868   1.274       .  A
C1858      O1859   1.257       .  A
C1858      C3665   1.462       .  S
O1859     Al1861   1.873       .  S
O1860      C1862   1.258       .  A
O1860     Al1861   1.885       .  S
Al1861     O1869   1.919       .  S
Al1861     O1871   1.920       .  S
Al1861     O1870   1.790       .  S
C1862      O1875   1.259       .  A
C1862      C3701   1.476       .  S
O1863      C1873   1.255       .  A
O1863     Al1865   1.892       .  S
O1864      C1877   1.276       .  A
O1864     Al1874   1.947       .  S
Al1865     O1878   1.911       .  S
Al1865     O1875   1.910       .  S
Al1865     O1870   1.779       .  S
O1866      C1873   1.258       .  A
O1866     Al1874   1.909       .  S
O1867      C1876   1.261       .  A
O1867     Al1874   1.911       .  S
O1868     Al1874   1.942       .  S
O1869      C1876   1.269       .  A
O1870     Al1874   1.790       .  S
O1871      C1872   1.264       .  A
C1872      C3677   1.492       .  S
C1873      C3641   1.470       .  S
C1876      C3689   1.513       .  S
C1877      O1878   1.265       .  A
C1877      C3656   1.487       .  S
O1879      C1894   1.256       .  A
O1879     Al1887   1.873       .  S
C1880      O1890   1.273       .  A
C1880      O1881   1.260       .  A
C1880      C3593   1.457       .  S
O1881     Al1883   1.884       .  S
O1882      C1884   1.258       .  A
O1882     Al1883   1.895       .  S
Al1883     O1891   1.911       .  S
Al1883     O1893   1.920       .  S
Al1883     O1892   1.787       .  S
C1884      O1897   1.258       .  A
C1884      C3629   1.478       .  S
O1885      C1895   1.256       .  A
O1885     Al1887   1.894       .  S
O1886      C1899   1.278       .  A
O1886     Al1896   1.950       .  S
Al1887     O1900   1.913       .  S
Al1887     O1897   1.906       .  S
Al1887     O1892   1.774       .  S
O1888      C1895   1.259       .  A
O1888     Al1896   1.917       .  S
O1889      C1898   1.261       .  A
O1889     Al1896   1.923       .  S
O1890     Al1896   1.934       .  S
O1891      C1898   1.266       .  A
O1892     Al1896   1.790       .  S
O1893      C1894   1.265       .  A
C1894      C3605   1.483       .  S
C1895      C3581   1.475       .  S
C1898      C3692   1.498       .  S
C1899      O1900   1.267       .  A
C1899      C3617   1.487       .  S
O1901      C1916   1.266       .  A
O1901     Al1909   1.887       .  S
C1902      C3545   1.461       .  S
O1903     Al1905   1.938       .  S
O1904      C1906   1.261       .  A
O1904     Al1905   1.922       .  S
Al1905     O1913   1.946       .  S
Al1905     O1915   1.961       .  S
Al1905     O1914   1.799       .  S
C1906      O1919   1.256       .  A
C1906      C3509   1.496       .  S
O1907      C1917   1.267       .  A
O1907     Al1909   1.929       .  S
O1908      C1921   1.263       .  A
O1908     Al1918   1.912       .  S
Al1909     O1922   1.898       .  S
Al1909     O1919   1.899       .  S
Al1909     O1914   1.789       .  S
O1910      C1917   1.261       .  A
O1910     Al1918   1.889       .  S
O1911      C1920   1.257       .  A
O1911     Al1918   1.883       .  S
O1912     Al1918   1.842       .  S
O1913      C1920   1.269       .  A
O1914     Al1918   1.777       .  S
O1915      C1916   1.276       .  A
C1916      C3524   1.497       .  S
C1917      C3569   1.473       .  S
C1920      C3557   1.506       .  S
C1921      O1922   1.260       .  A
C1921      C3533   1.481       .  S
O1923      C1938   1.264       .  A
O1923     Al1931   1.884       .  S
C1924      C3485   1.453       .  S
O1925     Al1927   1.930       .  S
O1926      C1928   1.256       .  A
O1926     Al1927   1.907       .  S
Al1927     O1935   1.936       .  S
Al1927     O1937   1.966       .  S
Al1927     O1936   1.804       .  S
C1928      O1941   1.250       .  A
C1928      C3449   1.468       .  S
O1929      C1939   1.263       .  A
O1929     Al1931   1.920       .  S
O1930      C1943   1.265       .  A
O1930     Al1940   1.912       .  S
Al1931     O1944   1.877       .  S
Al1931     O1941   1.877       .  S
Al1931     O1936   1.790       .  S
O1932      C1939   1.259       .  A
O1932     Al1940   1.892       .  S
O1933      C1942   1.260       .  A
O1933     Al1940   1.889       .  S
O1934     Al1940   1.843       .  S
O1935      C1942   1.268       .  A
O1936     Al1940   1.784       .  S
O1937      C1938   1.278       .  A
C1938      C3461   1.495       .  S
C1939      C3497   1.472       .  S
C1942      C3560   1.518       .  S
C1943      O1944   1.257       .  A
C1943      C3476   1.482       .  S
O1945      C1960   1.257       .  A
O1945     Al1953   1.879       .  S
C1946      O1956   1.274       .  A
C1946      O1947   1.256       .  A
C1946      C3536   1.474       .  S
O1947     Al1949   1.858       .  S
O1948      C1950   1.259       .  A
O1948     Al1949   1.897       .  S
Al1949     O1957   1.917       .  S
Al1949     O1959   1.919       .  S
Al1949     O1958   1.789       .  S
C1950      O1963   1.258       .  A
C1950      C3437   1.480       .  S
O1951      C1961   1.255       .  A
O1951     Al1953   1.879       .  S
O1952      C1965   1.271       .  A
O1952     Al1962   1.944       .  S
Al1953     O1966   1.904       .  S
Al1953     O1963   1.907       .  S
Al1953     O1958   1.780       .  S
O1954      C1961   1.264       .  A
O1954     Al1962   1.941       .  S
O1955      C1964   1.263       .  A
O1955     Al1962   1.913       .  S
O1956     Al1962   1.946       .  S
O1957      C1964   1.268       .  A
O1958     Al1962   1.797       .  S
O1959      C1960   1.263       .  A
C1960      C3548   1.477       .  S
C1961      C3413   1.476       .  S
C1964      C3425   1.510       .  S
C1965      O1966   1.261       .  A
C1965      C3401   1.486       .  S
O1967      C1982   1.259       .  A
O1967     Al1975   1.872       .  S
C1968      O1978   1.268       .  A
C1968      O1969   1.258       .  A
C1968      C3473   1.464       .  S
O1969     Al1971   1.872       .  S
O1970      C1972   1.262       .  A
O1970     Al1971   1.909       .  S
Al1971     O1979   1.907       .  S
Al1971     O1981   1.918       .  S
Al1971     O1980   1.787       .  S
C1972      O1985   1.260       .  A
C1972      C3389   1.482       .  S
O1973      C1983   1.256       .  A
O1973     Al1975   1.868       .  S
O1974      C1987   1.271       .  A
O1974     Al1984   1.951       .  S
Al1975     O1988   1.904       .  S
Al1975     O1985   1.912       .  S
Al1975     O1980   1.774       .  S
O1976      C1983   1.267       .  A
O1976     Al1984   1.932       .  S
O1977      C1986   1.266       .  A
O1977     Al1984   1.926       .  S
O1978     Al1984   1.924       .  S
O1979      C1986   1.268       .  A
O1980     Al1984   1.789       .  S
O1981      C1982   1.262       .  A
C1982      C3488   1.468       .  S
C1983      C3368   1.468       .  S
C1986      C3428   1.501       .  S
C1987      O1988   1.260       .  A
C1987      C3380   1.491       .  S
C1990      O2000   1.253       .  A
C1990      O1991   1.271       .  A
C1990      C3317   1.469       .  S
O1991     Al1993   1.947       .  S
O1992      C1994   1.261       .  A
O1992     Al1993   1.917       .  S
Al1993     O2001   1.934       .  S
Al1993     O2003   1.952       .  S
Al1993     O2002   1.789       .  S
C1994      O2007   1.253       .  A
C1994      C3329   1.465       .  S
O1995      C2005   1.268       .  A
O1995     Al1997   1.930       .  S
O1996     Al2006   1.918       .  S
Al1997     O2007   1.874       .  S
Al1997     O2002   1.776       .  S
O1998      C2005   1.259       .  A
O1998     Al2006   1.883       .  S
O1999      C2008   1.272       .  A
O1999     Al2006   1.908       .  S
O2000     Al2006   1.879       .  S
O2001      C2008   1.268       .  A
O2002     Al2006   1.792       .  S
O2003      C2004   1.274   1_556  A
C2005      C3353   1.490   1_655  S
C2008      C3341   1.494       .  S
C2009      O2010   1.250       .  A
C2009      C3305   1.477       .  S
O2011      C2026   1.265       .  A
O2011     Al2019   1.907       .  S
C2012      O2022   1.255       .  A
C2012      O2013   1.276       .  A
C2012      C3281   1.469       .  S
O2013     Al2015   1.950       .  S
O2014      C2016   1.258       .  A
O2014     Al2015   1.913       .  S
Al2015     O2023   1.913       .  S
Al2015     O2025   1.949       .  S
Al2015     O2024   1.781       .  S
C2016      O2029   1.255       .  A
C2016      C3704   1.482       .  S
O2017      C2027   1.261       .  A
O2017     Al2019   1.906       .  S
O2018      C2031   1.260       .  A
O2018     Al2028   1.900       .  S
Al2019     O2032   1.873       .  S
Al2019     O2029   1.891       .  S
Al2019     O2024   1.779       .  S
O2020      C2027   1.254       .  A
O2020     Al2028   1.878       .  S
O2021      C2030   1.269       .  A
O2021     Al2028   1.918       .  S
O2022     Al2028   1.873       .  S
O2023      C2030   1.262       .  A
O2024     Al2028   1.784       .  S
O2025      C2026   1.276       .  A
C2026      C3260   1.485       .  S
C2027      C3365   1.479   1_655  S
C2030      C3344   1.501       .  S
C2031      O2032   1.255       .  A
C2031      C3269   1.473       .  S
O2033      C2048   1.260       .  A
O2033     Al2041   1.894       .  S
C2034      O2044   1.254       .  A
C2034      O2035   1.274       .  A
C2034      C3233   1.469       .  S
O2035     Al2037   1.933       .  S
O2036      C2038   1.263       .  A
O2036     Al2037   1.913       .  S
Al2037     O2045   1.900       .  S
Al2037     O2047   1.949       .  S
Al2037     O2046   1.781       .  S
C2038      O2051   1.257       .  A
C2038      C3632   1.485       .  S
O2039      C2049   1.262       .  A
O2039     Al2041   1.908       .  S
O2040      C2053   1.257       .  A
O2040     Al2050   1.922       .  S
Al2041     O2054   1.866       .  S
Al2041     O2051   1.894       .  S
Al2041     O2046   1.772       .  S
O2042      C2049   1.263       .  A
O2042     Al2050   1.917       .  S
O2043      C2052   1.274       .  A
O2043     Al2050   1.934       .  S
O2044     Al2050   1.850       .  S
O2045      C2052   1.260       .  A
O2046     Al2050   1.801       .  S
O2047      C2048   1.272       .  A
C2048      C3209   1.485       .  S
C2049      C3416   1.497       .  S
C2052      C3245   1.493       .  S
C2053      O2054   1.252       .  A
C2053      C3221   1.486       .  S
O2055      C2070   1.264   1_556  A
C2056      O2066   1.257       .  A
C2056      O2057   1.271       .  A
C2056      C3173   1.463       .  S
O2057     Al2059   1.932       .  S
O2058      C2060   1.262       .  A
O2058     Al2059   1.922       .  S
Al2059     O2067   1.921       .  S
Al2059     O2069   1.930       .  S
Al2059     O2068   1.781       .  S
C2060      O2073   1.253       .  A
C2060      C3188   1.463       .  S
O2061      C2071   1.267       .  A
O2061     Al2063   1.939       .  S
O2062     Al2072   1.939       .  S
Al2063     O2073   1.879       .  S
Al2063     O2068   1.768       .  S
O2064      C2071   1.263       .  A
O2064     Al2072   1.891       .  S
O2065      C2074   1.274       .  A
O2065     Al2072   1.922       .  S
O2066     Al2072   1.880       .  S
O2067      C2074   1.267       .  A
O2068     Al2072   1.793       .  S
C2070      C3149   1.483   1_554  S
C2071      C3197   1.491       .  S
C2074      C3248   1.492       .  S
C2075      O2076   1.246       .  A
C2075      C3164   1.493       .  S
O2077      C2092   1.257       .  A
O2077     Al2085   1.878       .  S
C2078      C3116   1.459       .  S
O2079     Al2081   1.873       .  S
O2080      C2082   1.256       .  A
O2080     Al2081   1.885       .  S
Al2081     O2089   1.907       .  S
Al2081     O2091   1.927       .  S
Al2081     O2090   1.784       .  S
C2082      O2095   1.257       .  A
C2082      C3332   1.478       .  S
O2083      C2093   1.259       .  A
O2083     Al2085   1.888       .  S
O2084      C2097   1.277       .  A
O2084     Al2094   1.956       .  S
Al2085     O2098   1.907       .  S
Al2085     O2095   1.912       .  S
Al2085     O2090   1.776       .  S
O2086      C2093   1.263       .  A
O2086     Al2094   1.928       .  S
O2087      C2096   1.267       .  A
O2087     Al2094   1.938       .  S
O2088     Al2094   1.925       .  S
O2089      C2096   1.266       .  A
O2090     Al2094   1.790       .  S
O2091      C2092   1.266       .  A
C2092      C3125   1.489       .  S
C2093      C3089   1.489       .  S
C2096      C3137   1.516       .  S
C2097      O2098   1.263       .  A
C2097      C3101   1.491       .  S
O2099      C2114   1.254       .  A
O2099     Al2107   1.872       .  S
C2100      C3053   1.482       .  S
O2101     Al2103   1.875       .  S
O2102      C2104   1.259       .  A
O2102     Al2103   1.900       .  S
Al2103     O2111   1.919       .  S
Al2103     O2113   1.932       .  S
Al2103     O2112   1.800       .  S
C2104      O2117   1.257       .  A
C2104      C3185   1.485       .  S
O2105      C2115   1.248       .  A
O2105     Al2107   1.854       .  S
O2106      C2119   1.278       .  A
O2106     Al2116   1.971       .  S
Al2107     O2120   1.889       .  S
Al2107     O2117   1.886       .  S
Al2107     O2112   1.775       .  S
O2108      C2115   1.262       .  A
O2108     Al2116   1.938       .  S
O2109      C2118   1.264       .  A
O2109     Al2116   1.920       .  S
O2110     Al2116   1.951       .  S
O2111      C2118   1.272       .  A
O2112     Al2116   1.794       .  S
O2113      C2114   1.263       .  A
C2114      C3065   1.480       .  S
C2115      C3044   1.479       .  S
C2118      C3140   1.507       .  S
C2119      O2120   1.259       .  A
C2119      C3080   1.497       .  S
C2122      O2132   1.255       .  A
C2122      O2123   1.271       .  A
C2122      C3029   1.461       .  S
O2123     Al2125   1.941       .  S
O2124      C2126   1.258       .  A
O2124     Al2125   1.910       .  S
Al2125     O2133   1.927       .  S
Al2125     O2135   1.945       .  S
Al2125     O2134   1.785       .  S
C2126      O2139   1.256       .  A
C2126      C2996   1.483       .  S
O2127      C2137   1.260       .  A
O2127     Al2129   1.906       .  S
O2128     Al2138   1.920       .  S
Al2129     O2139   1.888       .  S
Al2129     O2134   1.770       .  S
O2130      C2137   1.261       .  A
O2130     Al2138   1.898       .  S
O2131      C2140   1.272       .  A
O2131     Al2138   1.918       .  S
O2132     Al2138   1.886       .  S
O2133      C2140   1.264       .  A
O2134     Al2138   1.789       .  S
O2135      C2136   1.275   1_556  A
C2137      C3092   1.462   1_455  S
C2140      C3005   1.493       .  S
C2141      O2142   1.259       .  A
C2141      C3020   1.488   1_455  S
O2143      C2158   1.262       .  A
O2143     Al2151   1.894       .  S
C2144      O2154   1.253       .  A
C2144      O2145   1.266       .  A
C2144      C2969   1.454       .  S
O2145     Al2147   1.927       .  S
O2146      C2148   1.262       .  A
O2146     Al2147   1.922       .  S
Al2147     O2155   1.957       .  S
Al2147     O2157   1.942       .  S
Al2147     O2156   1.786       .  S
C2148      O2161   1.255       .  A
C2148      C3392   1.472       .  S
O2149      C2159   1.265       .  A
O2149     Al2151   1.918       .  S
O2150      C2163   1.257       .  A
O2150     Al2160   1.915       .  S
Al2151     O2164   1.884       .  S
Al2151     O2161   1.885       .  S
Al2151     O2156   1.774       .  S
O2152      C2159   1.259       .  A
O2152     Al2160   1.885       .  S
O2153      C2162   1.269       .  A
O2153     Al2160   1.908       .  S
O2154     Al2160   1.882       .  S
O2155      C2162   1.273       .  A
O2156     Al2160   1.789       .  S
O2157      C2158   1.274       .  A
C2158      C3464   1.482       .  S
C2159      C3644   1.474   1_455  S
C2162      C3008   1.507       .  S
C2163      O2164   1.256       .  A
C2163      C2957   1.479       .  S
O2165      C2180   1.258       .  A
O2165     Al2173   1.881       .  S
C2166      C2936   1.452       .  S
O2167     Al2169   1.885       .  S
O2168      C2170   1.258       .  A
O2168     Al2169   1.893       .  S
Al2169     O2177   1.915       .  S
Al2169     O2179   1.926       .  S
Al2169     O2178   1.788       .  S
C2170      O2183   1.257       .  A
C2170      C2993   1.460       .  S
O2171      C2181   1.253       .  A
O2171     Al2173   1.891       .  S
O2172      C2185   1.277       .  A
O2172     Al2182   1.941       .  S
Al2173     O2186   1.918       .  S
Al2173     O2183   1.898       .  S
Al2173     O2178   1.768       .  S
O2174      C2181   1.259       .  A
O2174     Al2182   1.924       .  S
O2175      C2184   1.264       .  A
O2175     Al2182   1.934       .  S
O2176     Al2182   1.928       .  S
O2177      C2184   1.270       .  A
O2178     Al2182   1.791       .  S
O2179      C2180   1.264       .  A
C2180      C2945   1.489       .  S
C2181      C3356   1.466       .  S
C2184      C2909   1.503       .  S
C2185      O2186   1.268       .  A
C2185      C2924   1.486       .  S
O2187      C2202   1.266       .  A
O2187     Al2195   1.914       .  S
C2188      C2873   1.460   1_554  S
O2189     Al2191   1.844       .  S
O2190      C2192   1.262       .  A
O2190     Al2191   1.905       .  S
Al2191     O2199   1.912       .  S
Al2191     O2201   1.905       .  S
Al2191     O2200   1.773       .  S
C2192      O2205   1.261       .  A
C2192      C2897   1.464       .  S
O2193      C2203   1.260       .  A
O2193     Al2195   1.913       .  S
O2194      C2207   1.280       .  A
O2194     Al2204   1.988       .  S
Al2195     O2208   1.876       .  S
Al2195     O2205   1.909       .  S
Al2195     O2200   1.781       .  S
O2196      C2203   1.259       .  A
O2196     Al2204   1.906       .  S
O2197      C2206   1.271       .  A
O2197     Al2204   1.931       .  S
O2198     Al2204   1.953       .  S
O2199      C2206   1.262       .  A
O2200     Al2204   1.790       .  S
O2201      C2202   1.264       .  A
C2202      C2888   1.481       .  S
C2203      C3200   1.486       .  S
C2206      C2912   1.506       .  S
C2207      O2208   1.261       .  A
C2207      C2864   1.502       .  S
O2209      C2224   1.255       .  A
C2210      O2220   1.270       .  A
C2210      O2211   1.255       .  A
C2210      C3272   1.466       .  S
O2211     Al2213   1.873       .  S
O2212      C2214   1.260       .  A
O2212     Al2213   1.893       .  S
Al2213     O2221   1.928       .  S
Al2213     O2223   1.941       .  S
Al2213     O2222   1.792       .  S
C2214      O2227   1.263       .  A
C2214      C2849   1.483   1_455  S
O2215      C2225   1.250       .  A
O2215     Al2217   1.877       .  S
O2216      C2229   1.276       .  A
O2216     Al2226   1.956       .  S
Al2217     O2227   1.909       .  S
Al2217     O2222   1.771       .  S
O2218      C2225   1.263       .  A
O2218     Al2226   1.933       .  S
O2219      C2228   1.273       .  A
O2219     Al2226   1.951       .  S
O2220     Al2226   1.940       .  S
O2221      C2228   1.277       .  A
O2222     Al2226   1.780       .  S
C2224      C3284   1.490       .  S
C2225      C3500   1.467       .  S
C2228      C2837   1.507       .  S
O2231      C2246   1.252       .  A
O2231     Al2239   1.872       .  S
C2232      O2242   1.269       .  A
C2232      O2233   1.255       .  A
C2232      C3308   1.461       .  S
O2233     Al2235   1.874       .  S
O2234      C2236   1.265   1_455  A
O2234     Al2235   1.913       .  S
Al2235     O2243   1.949       .  S
Al2235     O2245   1.936       .  S
Al2235     O2244   1.799       .  S
C2236      O2249   1.265   1_655  A
C2236      C2825   1.494       .  S
O2237      C2247   1.253       .  A
O2237     Al2239   1.883       .  S
O2238      C2251   1.274       .  A
O2238     Al2248   1.948       .  S
Al2239     O2252   1.894       .  S
Al2239     O2249   1.923       .  S
Al2239     O2244   1.780       .  S
O2240      C2247   1.258       .  A
O2240     Al2248   1.908       .  S
O2241      C2250   1.265       .  A
O2241     Al2248   1.920       .  S
O2242     Al2248   1.933       .  S
O2243      C2250   1.279       .  A
O2244     Al2248   1.789       .  S
O2245      C2246   1.262       .  A
C2246      C3320   1.493   1_455  S
C2247      C2813   1.465       .  S
C2250      C2840   1.508       .  S
C2251      O2252   1.262       .  A
C2251      C2921   1.487       .  S
O2253      C2268   1.252       .  A
C2254      O2264   1.273       .  A
C2254      O2255   1.257       .  A
C2254      C2960   1.459       .  S
O2255     Al2257   1.871       .  S
O2256      C2258   1.255       .  A
O2256     Al2257   1.883       .  S
Al2257     O2265   1.922       .  S
Al2257     O2267   1.931       .  S
Al2257     O2266   1.791       .  S
C2258      O2271   1.258       .  A
C2258      C3452   1.474   1_655  S
O2259      C2269   1.257       .  A
O2259     Al2261   1.887       .  S
O2260      C2273   1.277       .  A
O2260     Al2270   1.956       .  S
Al2261     O2271   1.911       .  S
Al2261     O2266   1.775       .  S
O2262      C2269   1.260       .  A
O2262     Al2270   1.922       .  S
O2263      C2272   1.261       .  A
O2263     Al2270   1.914       .  S
O2264     Al2270   1.933       .  S
O2265      C2272   1.270       .  A
O2266     Al2270   1.789       .  S
C2268      C2972   1.487       .  S
C2269      C2789   1.485       .  S
C2272      C2801   1.510       .  S
O2275      C2290   1.255       .  A
O2275     Al2283   1.872       .  S
C2276      O2286   1.276       .  A
C2276      O2277   1.257       .  A
C2276      C3017   1.470       .  S
O2277     Al2279   1.881       .  S
O2278      C2280   1.257       .  A
O2278     Al2279   1.884       .  S
Al2279     O2287   1.912       .  S
Al2279     O2289   1.922       .  S
Al2279     O2288   1.789       .  S
C2280      O2293   1.257       .  A
C2280      C2777   1.468   1_655  S
O2281      C2291   1.254       .  A
O2281     Al2283   1.887       .  S
O2282      C2295   1.279       .  A
O2282     Al2292   1.962       .  S
Al2283     O2296   1.906       .  S
Al2283     O2293   1.893       .  S
Al2283     O2288   1.778       .  S
O2284      C2291   1.260       .  A
O2284     Al2292   1.910       .  S
O2285      C2294   1.261       .  A
O2285     Al2292   1.917       .  S
O2286     Al2292   1.950       .  S
O2287      C2294   1.269       .  A
O2288     Al2292   1.785       .  S
O2289      C2290   1.264       .  A
C2290      C3032   1.491       .  S
C2291      C2765   1.478       .  S
C2294      C2804   1.500       .  S
C2295      O2296   1.264       .  A
C2295      C3104   1.494       .  S
O2297      C2312   1.266       .  A
O2297     Al2305   1.912       .  S
C2298      C3680   1.458       .  S
O2299     Al2301   1.930       .  S
O2300      C2302   1.255       .  A
O2300     Al2301   1.892       .  S
Al2301     O2309   1.911       .  S
Al2301     O2311   1.940       .  S
Al2301     O2310   1.789       .  S
C2302      O2315   1.256       .  A
C2302      C2852   1.455       .  S
O2303      C2313   1.261       .  A
O2303     Al2305   1.914       .  S
O2304      C2317   1.262       .  A
O2304     Al2314   1.926       .  S
Al2305     O2318   1.878       .  S
Al2305     O2315   1.898       .  S
Al2305     O2310   1.773       .  S
O2306      C2313   1.259       .  A
O2306     Al2314   1.887       .  S
O2307      C2316   1.269       .  A
O2307     Al2314   1.911       .  S
O2308     Al2314   1.886       .  S
O2309      C2316   1.260       .  A
O2310     Al2314   1.790       .  S
O2311      C2312   1.275       .  A
C2312      C3257   1.483       .  S
C2313      C2792   1.470       .  S
C2316      C2756   1.487       .  S
C2317      O2318   1.258       .  A
C2317      C3668   1.483       .  S
O2319      C2334   1.266       .  A
O2319     Al2327   1.915       .  S
C2320      C3608   1.461       .  S
O2321     Al2323   1.916       .  S
O2322      C2324   1.260       .  A
O2322     Al2323   1.922       .  S
Al2323     O2331   1.921       .  S
Al2323     O2333   1.939       .  S
Al2323     O2332   1.784       .  S
C2324      O2337   1.256       .  A
C2324      C2729   1.490       .  S
O2325      C2335   1.256       .  A
O2325     Al2327   1.889       .  S
O2326      C2339   1.265       .  A
O2326     Al2336   1.923       .  S
Al2327     O2340   1.880       .  S
Al2327     O2337   1.895       .  S
Al2327     O2332   1.770       .  S
O2328      C2335   1.257       .  A
O2328     Al2336   1.886       .  S
O2329      C2338   1.266       .  A
O2329     Al2336   1.911       .  S
O2330     Al2336   1.891       .  S
O2331      C2338   1.263       .  A
O2332     Al2336   1.788       .  S
O2333      C2334   1.274       .  A
C2334      C3212   1.483       .  S
C2335      C2744   1.455       .  S
C2338      C2753   1.503       .  S
C2339      O2340   1.258       .  A
C2339      C3596   1.492       .  S
O2341      C2356   1.275       .  A
O2341     Al2349   1.885       .  S
C2342      O2352   1.242       .  A
C2342      O2343   1.264       .  A
C2342      C2720   1.458       .  S
O2343     Al2345   1.917       .  S
O2344      C2346   1.251       .  A
O2344     Al2345   1.921       .  S
Al2345     O2353   1.897       .  S
Al2345     O2355   1.974       .  S
Al2345     O2354   1.776       .  S
C2346      O2359   1.241       .  A
C2346      C3440   1.485       .  S
O2347      C2357   1.277       .  A
O2347     Al2349   1.907       .  S
O2348      C2361   1.258       .  A
O2348     Al2358   1.913       .  S
Al2349     O2362   1.837       .  S
Al2349     O2359   1.869       .  S
Al2349     O2354   1.775       .  S
O2350      C2357   1.277       .  A
O2350     Al2358   1.937       .  S
O2351      C2360   1.275       .  A
O2351     Al2358   1.946       .  S
O2352     Al2358   1.819       .  S
O2353      C2360   1.260       .  A
O2354     Al2358   1.794       .  S
O2355      C2356   1.286       .  A
C2356      C3521   1.490       .  S
C2357      C3584   1.492       .  S
C2360      C2696   1.501       .  S
C2361      O2362   1.240       .  A
C2361      C2705   1.486       .  S
C2364      O2374   1.256       .  A
C2364      O2365   1.271       .  A
C2364      C2684   1.461       .  S
O2365     Al2367   1.942       .  S
O2366      C2368   1.263       .  A
O2366     Al2367   1.927       .  S
Al2367     O2375   1.936       .  S
Al2367     O2377   1.951       .  S
Al2367     O2376   1.773       .  S
C2368      O2381   1.251       .  A
C2368      C2900   1.464       .  S
O2369      C2379   1.266       .  A
O2369     Al2371   1.912       .  S
O2370     Al2380   1.939       .  S
Al2371     O2381   1.874       .  S
Al2371     O2376   1.762       .  S
O2372      C2379   1.263       .  A
O2372     Al2380   1.903       .  S
O2373      C2382   1.276       .  A
O2373     Al2380   1.926       .  S
O2374     Al2380   1.891       .  S
O2375      C2382   1.269       .  A
O2376     Al2380   1.794       .  S
O2377      C2378   1.274       .  A
C2379      C3041   1.478       .  S
C2382      C2693   1.502       .  S
C2383      O2384   1.249       .  A
C2383      C2669   1.468       .  S
O2385      C2400   1.261       .  A
O2385     Al2393   1.907       .  S
C2386      O2396   1.259       .  A
C2386      O2387   1.273       .  A
C2386      C2885   1.469       .  S
O2387     Al2389   1.937       .  S
O2388      C2390   1.264       .  A
O2388     Al2389   1.929       .  S
Al2389     O2397   1.908       .  S
Al2389     O2399   1.957       .  S
Al2389     O2398   1.795       .  S
C2390      O2403   1.260       .  A
C2390      C2624   1.484       .  S
O2391      C2401   1.256       .  A
O2391     Al2393   1.897       .  S
O2392      C2405   1.265       .  A
O2392     Al2402   1.921       .  S
Al2393     O2406   1.878       .  S
Al2393     O2403   1.896       .  S
Al2393     O2398   1.780       .  S
O2394      C2401   1.256       .  A
O2394     Al2402   1.900       .  S
O2395      C2404   1.263       .  A
O2395     Al2402   1.902       .  S
O2396     Al2402   1.868       .  S
O2397      C2404   1.259       .  A
O2398     Al2402   1.790       .  S
O2399      C2400   1.274       .  A
C2400      C2660   1.492       .  S
C2401      C2648   1.478       .  S
C2404      C2636   1.510       .  S
C2405      O2406   1.261       .  A
C2405      C2876   1.470       .  S
O2407      C2422   1.263       .  A
O2407     Al2415   1.910       .  S
C2408      O2418   1.258       .  A
C2408      O2409   1.267       .  A
C2408      C2948   1.459       .  S
O2409     Al2411   1.925       .  S
O2410      C2412   1.263       .  A
O2410     Al2411   1.917       .  S
Al2411     O2419   1.917       .  S
Al2411     O2421   1.946       .  S
Al2411     O2420   1.785       .  S
C2412      O2425   1.255       .  A
C2412      C2780   1.469       .  S
O2413      C2423   1.258       .  A
O2413     Al2415   1.910       .  S
O2414      C2427   1.266       .  A
O2414     Al2424   1.926       .  S
Al2415     O2428   1.876       .  S
Al2415     O2425   1.871       .  S
Al2415     O2420   1.773       .  S
O2416      C2423   1.261       .  A
O2416     Al2424   1.905       .  S
O2417      C2426   1.268       .  A
O2417     Al2424   1.908       .  S
O2418     Al2424   1.888       .  S
O2419      C2426   1.264       .  A
O2420     Al2424   1.786       .  S
O2421      C2422   1.272       .  A
C2422      C2981   1.489       .  S
C2423      C2816   1.483       .  S
C2426      C2633   1.490       .  S
C2427      O2428   1.256       .  A
C2427      C2933   1.483       .  S
O2429      C2444   1.251       .  A
C2430      O2440   1.286       .  A
C2430      O2431   1.265       .  A
C2430      C2708   1.477       .  S
O2431     Al2433   1.866       .  S
O2432      C2434   1.257       .  A
O2432     Al2433   1.908       .  S
Al2433     O2441   1.933       .  S
Al2433     O2443   1.902       .  S
Al2433     O2442   1.792       .  S
C2434      O2447   1.254       .  A
C2434      C3512   1.474       .  S
O2435      C2445   1.244       .  A
O2435     Al2437   1.878       .  S
O2436      C2449   1.279       .  A
O2436     Al2446   1.941       .  S
Al2437     O2447   1.886       .  S
Al2437     O2442   1.776       .  S
O2438      C2445   1.248       .  A
O2438     Al2446   1.905       .  S
O2439      C2448   1.241       .  A
O2439     Al2446   1.863       .  S
O2440     Al2446   1.948       .  S
O2441      C2448   1.266       .  A
O2442     Al2446   1.795       .  S
C2444      C2717   1.473       .  S
C2445      C2741   1.480       .  S
C2448      C2609   1.501       .  S
O2451      C2466   1.247       .  A
O2451     Al2459   1.859       .  S
C2452      O2462   1.275       .  A
C2452      O2453   1.258       .  A
C2452      C2672   1.475       .  S
O2453     Al2455   1.867       .  S
O2454      C2456   1.260       .  A
O2454     Al2455   1.906       .  S
Al2455     O2463   1.935       .  S
Al2455     O2465   1.924       .  S
Al2455     O2464   1.794       .  S
C2456      O2469   1.261       .  A
C2456      C2621   1.488       .  S
O2457      C2467   1.251       .  A
O2457     Al2459   1.874       .  S
O2458      C2471   1.280       .  A
O2458     Al2468   1.970       .  S
Al2459     O2472   1.900       .  S
Al2459     O2469   1.912       .  S
Al2459     O2464   1.776       .  S
O2460      C2467   1.260       .  A
O2460     Al2468   1.913       .  S
O2461      C2470   1.261       .  A
O2461     Al2468   1.919       .  S
O2462     Al2468   1.951       .  S
O2463      C2470   1.273       .  A
O2464     Al2468   1.777       .  S
O2465      C2466   1.263       .  A
C2466      C2681   1.487       .  S
C2467      C2597   1.463       .  S
C2470      C2612   1.502       .  S
C2471      O2472   1.262       .  A
C2471      C3077   1.495       .  S
O2473      C2488   1.267       .  A
O2473     Al2481   1.908       .  S
C2474      O2484   1.257       .  A
C2474      O2475   1.273       .  A
C2474      C3128   1.459       .  S
O2475     Al2477   1.939       .  S
O2476      C2478   1.261       .  A
O2476     Al2477   1.928       .  S
Al2477     O2485   1.952       .  S
Al2477     O2487   1.948       .  S
Al2477     O2486   1.789       .  S
C2478      O2491   1.257       .  A
C2478      C2828   1.483       .  S
O2479      C2489   1.260       .  A
O2479     Al2481   1.905       .  S
O2480      C2493   1.259       .  A
O2480     Al2490   1.907       .  S
Al2481     O2494   1.885       .  S
Al2481     O2491   1.903       .  S
Al2481     O2486   1.776       .  S
O2482      C2489   1.259       .  A
O2482     Al2490   1.888       .  S
O2483      C2492   1.266       .  A
O2483     Al2490   1.907       .  S
O2484     Al2490   1.887       .  S
O2485      C2492   1.268       .  A
O2486     Al2490   1.786       .  S
O2487      C2488   1.278       .  A
C2488      C3296   1.486       .  S
C2489      C2768   1.471       .  S
C2492      C2585   1.516       .  S
C2493      O2494   1.259       .  A
C2493      C3113   1.480       .  S
O2495      C2510   1.261       .  A
O2495     Al2503   1.887       .  S
C2496      O2506   1.260       .  A
C2496      O2497   1.260       .  A
C2496      C3068   1.467       .  S
O2497     Al2499   1.927       .  S
O2498      C2500   1.260       .  A
O2498     Al2499   1.911       .  S
Al2499     O2507   1.933       .  S
Al2499     O2509   1.966       .  S
Al2499     O2508   1.798       .  S
C2500      O2513   1.261       .  A
C2500      C2573   1.486       .  S
O2501      C2511   1.258       .  A
O2501     Al2503   1.896       .  S
O2502      C2515   1.268       .  A
O2502     Al2512   1.926       .  S
Al2503     O2516   1.903       .  S
Al2503     O2513   1.911       .  S
Al2503     O2508   1.786       .  S
O2504      C2511   1.262       .  A
O2504     Al2512   1.908       .  S
O2505      C2514   1.266       .  A
O2505     Al2512   1.913       .  S
O2506     Al2512   1.871       .  S
O2507      C2514   1.273       .  A
O2508     Al2512   1.774       .  S
O2509      C2510   1.274       .  A
C2510      C3152   1.499       .  S
C2511      C2600   1.461       .  S
C2514      C2588   1.517       .  S
C2515      O2516   1.261       .  A
C2515      C3056   1.488       .  S
O2517      C2532   1.248       .  A
C2518      O2528   1.265       .  A
C2518      O2519   1.249       .  A
C2518      C3224   1.459       .  S
O2519     Al2521   1.822       .  S
O2520      C2522   1.267       .  A
O2520     Al2521   1.909       .  S
Al2521     O2529   1.892       .  S
Al2521     O2531   1.903       .  S
Al2521     O2530   1.783       .  S
C2522      O2535   1.268       .  A
C2522      C2732   1.481       .  S
O2523      C2533   1.245       .  A
O2523     Al2525   1.860       .  S
O2524      C2537   1.284   1_556  A
O2524     Al2534   1.996       .  S
Al2525     O2535   1.914       .  S
Al2525     O2530   1.789       .  S
O2526      C2533   1.257       .  A
O2526     Al2534   1.936       .  S
O2527      C2536   1.269       .  A
O2527     Al2534   1.942       .  S
O2528     Al2534   1.938       .  S
O2529      C2536   1.262       .  A
O2530     Al2534   1.800       .  S
C2532      C3236   1.472       .  S
C2533      C3572   1.483       .  S
C2536      C2561   1.509       .  S
O2539      C2554   1.251       .  A
O2539     Al2547   1.873       .  S
C2540      O2550   1.271       .  A
C2540      O2541   1.253       .  A
C2540      C3161   1.462       .  S
O2541     Al2543   1.883       .  S
O2542      C2544   1.262       .  A
O2542     Al2543   1.891       .  S
Al2543     O2551   1.912       .  S
Al2543     O2553   1.909       .  S
Al2543     O2552   1.789       .  S
C2544      O2557   1.266       .  A
C2544      C2576   1.468       .  S
O2545      C2555   1.253       .  A
O2545     Al2547   1.872       .  S
O2546      C2559   1.278       .  A
O2546     Al2556   1.956       .  S
Al2547     O2560   1.895       .  S
Al2547     O2557   1.932       .  S
Al2547     O2552   1.775       .  S
O2548      C2555   1.262       .  A
O2548     Al2556   1.926       .  S
O2549      C2558   1.273       .  A
O2549     Al2556   1.973       .  S
O2550     Al2556   1.947       .  S
O2551      C2558   1.270       .  A
O2552     Al2556   1.787       .  S
O2553      C2554   1.256       .  A
C2554      C3176   1.480       .  S
C2555      C2645   1.468       .  S
C2558      C2564   1.519       .  S
C2559      O2560   1.263       .  A
C2559      C2861   1.487       .  S
C2561      C2562   1.406       .  A
C2561      C2566   1.416       .  A
C2562      C2563   1.398       .  A
C2562      H2571   1.084       .  S
C2563      C2564   1.423       .  A
C2563      S2567   1.800       .  S
C2564      C2565   1.420       .  A
C2565      C2566   1.423       .  A
C2565      H2572   1.083       .  S
C2566      S2568   1.800       .  S
S2567      H2570   1.404       .  S
S2568      H2569   1.406       .  S
C2573      C2574   1.409       .  A
C2573      C2578   1.417       .  A
C2574      C2575   1.399       .  A
C2574      H2583   1.084       .  S
C2575      C2576   1.409       .  A
C2575      S2579   1.809       .  S
C2576      C2577   1.403       .  A
C2577      C2578   1.403       .  A
C2577      H2584   1.085       .  S
C2578      S2580   1.802       .  S
S2579      H2582   1.402       .  S
S2580      H2581   1.402       .  S
C2585      C2586   1.415       .  A
C2585      C2590   1.420       .  A
C2586      C2587   1.415       .  A
C2586      H2595   1.083       .  S
C2587      C2588   1.418       .  A
C2587      S2591   1.799       .  S
C2588      C2589   1.414       .  A
C2589      C2590   1.406       .  A
C2589      H2596   1.083       .  S
C2590      S2592   1.802       .  S
S2591      H2594   1.408       .  S
S2592      H2593   1.408       .  S
C2597      C2598   1.401       .  A
C2597      C2602   1.409       .  A
C2598      C2599   1.394       .  A
C2598      H2607   1.084       .  S
C2599      C2600   1.405       .  A
C2599      S2603   1.795       .  S
C2600      C2601   1.401       .  A
C2601      C2602   1.398       .  A
C2601      H2608   1.082       .  S
C2602      S2604   1.801       .  S
S2603      H2606   1.407       .  S
S2604      H2605   1.407       .  S
C2609      C2610   1.392   1_565  A
C2609      C2614   1.435       .  A
C2610      C2611   1.402       .  A
C2610      H2619   1.084       .  S
C2611      C2612   1.427       .  A
C2611      S2615   1.784       .  S
C2612      C2613   1.395       .  A
C2613      C2614   1.407   1_545  A
C2613      H2620   1.084       .  S
C2614      S2616   1.801       .  S
S2615      H2618   1.407       .  S
S2616      H2617   1.408       .  S
C2621      C2622   1.407       .  A
C2621      C2626   1.415       .  A
C2622      C2623   1.403       .  A
C2622      H2631   1.082       .  S
C2623      C2624   1.412       .  A
C2623      S2627   1.809       .  S
C2624      C2625   1.406       .  A
C2625      C2626   1.402       .  A
C2625      H2632   1.083       .  S
C2626      S2628   1.801       .  S
S2627      H2630   1.406       .  S
S2628      H2629   1.404       .  S
C2633      C2634   1.408       .  A
C2633      C2638   1.410       .  A
C2634      C2635   1.409       .  A
C2634      H2643   1.084       .  S
C2635      C2636   1.422       .  A
C2635      S2639   1.800       .  S
C2636      C2637   1.415       .  A
C2637      C2638   1.404       .  A
C2637      H2644   1.083       .  S
C2638      S2640   1.804       .  S
S2639      H2642   1.408       .  S
S2640      H2641   1.407       .  S
C2645      C2646   1.407       .  A
C2645      C2650   1.405       .  A
C2646      C2647   1.402       .  A
C2646      H2655   1.085       .  S
C2647      C2648   1.412       .  A
C2647      S2651   1.805       .  S
C2648      C2649   1.407       .  A
C2649      C2650   1.396       .  A
C2649      H2656   1.081       .  S
C2650      S2652   1.804       .  S
S2651      H2654   1.407       .  S
S2652      H2653   1.406       .  S
C2657      C2658   1.408       .  A
C2657      C2662   1.414       .  A
C2658      C2659   1.410       .  A
C2658      H2667   1.084       .  S
C2659      C2660   1.413       .  A
C2659      S2663   1.802       .  S
C2660      C2661   1.409       .  A
C2661      C2662   1.411       .  A
C2661      H2668   1.084       .  S
S2663      H2666   1.406       .  S
S2664      H2665   1.405       .  S
C2669      C2670   1.410       .  A
C2669      C2674   1.399       .  A
C2670      C2671   1.404       .  A
C2670      H2679   1.078       .  S
C2671      C2672   1.404       .  A
C2671      S2675   1.807       .  S
C2672      C2673   1.412       .  A
C2673      C2674   1.394       .  A
C2673      H2680   1.082       .  S
C2674      S2676   1.805       .  S
S2675      H2678   1.406       .  S
C2681      C2682   1.404       .  A
C2681      C2686   1.422       .  A
C2682      C2683   1.395       .  A
C2682      H2691   1.081       .  S
C2683      C2684   1.405       .  A
C2683      S2687   1.797       .  S
C2684      C2685   1.400       .  A
C2685      C2686   1.399       .  A
C2685      H2692   1.085       .  S
C2686      S2688   1.805       .  S
S2687      H2690   1.407       .  S
S2688      H2689   1.408       .  S
C2693      C2694   1.397       .  A
C2693      C2698   1.426       .  A
C2694      C2695   1.401   1_545  A
C2694      H2703   1.084   1_545  S
C2695      C2696   1.423       .  A
C2695      S2699   1.796       .  S
C2696      C2697   1.401   1_565  A
C2697      C2698   1.417       .  A
C2697      H2704   1.083       .  S
C2698      S2700   1.808       .  S
S2699      H2702   1.406       .  S
S2700      H2701   1.407       .  S
C2705      C2706   1.419       .  A
C2705      C2710   1.404       .  A
C2706      C2707   1.389       .  A
C2706      H2715   1.079       .  S
C2707      C2708   1.395       .  A
C2707      S2711   1.801       .  S
C2708      C2709   1.421       .  A
C2709      C2710   1.405       .  A
C2709      H2716   1.084       .  S
C2710      S2712   1.801       .  S
S2711      H2714   1.407       .  S
S2712      H2713   1.405       .  S
C2717      C2718   1.398       .  A
C2717      C2722   1.429       .  A
C2718      C2719   1.395       .  A
C2718      H2727   1.083       .  S
C2719      C2720   1.417       .  A
C2719      S2723   1.811       .  S
C2720      C2721   1.389       .  A
C2721      C2722   1.393       .  A
C2721      H2728   1.083       .  S
C2722      S2724   1.813       .  S
S2723      H2726   1.407       .  S
S2724      H2725   1.407       .  S
C2729      C2730   1.412       .  A
C2729      C2734   1.415       .  A
C2730      C2731   1.404       .  A
C2730      H2739   1.083       .  S
C2731      C2732   1.414       .  A
C2731      S2735   1.806       .  S
C2732      C2733   1.406       .  A
C2733      C2734   1.392       .  A
C2733      H2740   1.084       .  S
C2734      S2736   1.803       .  S
S2735      H2738   1.402       .  S
S2736      H2737   1.408       .  S
C2741      C2742   1.410       .  A
C2741      C2746   1.417       .  A
C2742      C2743   1.395       .  A
C2742      H2751   1.083       .  S
C2743      C2744   1.405       .  A
C2743      S2747   1.805       .  S
C2744      C2745   1.399       .  A
C2745      C2746   1.395       .  A
C2745      H2752   1.085       .  S
C2746      S2748   1.803       .  S
S2747      H2750   1.406       .  S
S2748      H2749   1.408       .  S
C2753      C2754   1.410       .  A
C2753      C2758   1.422       .  A
C2754      H2763   1.084       .  S
C2755      C2756   1.413       .  A
C2755      S2759   1.803       .  S
C2756      C2757   1.405       .  A
C2757      H2764   1.083       .  S
C2758      S2760   1.799       .  S
S2759      H2762   1.406       .  S
S2760      H2761   1.407       .  S
C2765      C2766   1.402       .  A
C2765      C2770   1.414       .  A
C2766      C2767   1.394       .  A
C2766      H2775   1.081       .  S
C2767      C2768   1.412       .  A
C2767      S2771   1.810       .  S
C2768      C2769   1.403       .  A
C2769      C2770   1.404       .  A
C2769      H2776   1.083       .  S
C2770      S2772   1.808       .  S
S2771      H2774   1.407       .  S
S2772      H2773   1.407       .  S
C2777      C2778   1.403       .  A
C2777      C2782   1.412       .  A
C2778      C2779   1.395       .  A
C2778      H2787   1.084       .  S
C2779      C2780   1.413       .  A
C2779      S2783   1.805       .  S
C2780      C2781   1.401       .  A
C2781      C2782   1.396       .  A
C2781      H2788   1.080       .  S
C2782      S2784   1.810       .  S
S2783      H2786   1.408       .  S
S2784      H2785   1.407       .  S
C2789      C2790   1.408       .  A
C2789      C2794   1.419       .  A
C2790      C2791   1.398       .  A
C2790      H2799   1.083       .  S
C2791      C2792   1.408       .  A
C2791      S2795   1.802       .  S
C2792      C2793   1.401       .  A
C2793      C2794   1.400       .  A
C2793      H2800   1.083       .  S
S2795      H2798   1.406       .  S
S2796      H2797   1.407       .  S
C2801      C2802   1.411       .  A
C2801      C2806   1.424       .  A
C2802      C2803   1.409   1_565  A
C2802      H2811   1.084       .  S
C2803      C2804   1.415       .  A
C2803      S2807   1.803       .  S
C2804      C2805   1.406       .  A
C2805      C2806   1.411   1_545  A
C2805      H2812   1.082       .  S
C2806      S2808   1.805       .  S
S2807      H2810   1.407       .  S
S2808      H2809   1.406   1_565  S
C2813      C2814   1.394       .  A
C2813      C2818   1.409       .  A
C2814      C2815   1.397       .  A
C2814      H2823   1.084       .  S
C2815      C2816   1.421       .  A
C2815      S2819   1.795       .  S
C2816      C2817   1.404       .  A
C2817      C2818   1.399       .  A
C2817      H2824   1.083       .  S
C2818      S2820   1.797       .  S
S2819      H2822   1.407       .  S
S2820      H2821   1.399       .  S
C2825      C2826   1.410       .  A
C2825      C2830   1.418       .  A
C2826      C2827   1.405       .  A
C2826      H2835   1.084       .  S
C2827      C2828   1.412       .  A
C2827      S2831   1.804       .  S
C2828      C2829   1.404       .  A
C2829      C2830   1.402       .  A
C2829      H2836   1.084       .  S
C2830      S2832   1.801       .  S
S2831      H2834   1.407       .  S
S2832      H2833   1.408       .  S
C2837      C2838   1.416       .  A
C2837      C2842   1.407       .  A
C2838      C2839   1.416       .  A
C2838      H2847   1.081       .  S
C2839      C2840   1.409       .  A
C2839      S2843   1.802       .  S
C2840      C2841   1.414       .  A
C2841      C2842   1.410       .  A
C2841      H2848   1.082       .  S
C2842      S2844   1.802       .  S
S2843      H2846   1.406       .  S
S2844      H2845   1.406       .  S
C2849      C2850   1.412       .  A
C2849      C2854   1.417       .  A
C2850      C2851   1.396       .  A
C2851      C2852   1.405       .  A
C2852      C2853   1.399       .  A
C2853      C2854   1.397       .  A
C2853      H2860   1.084       .  S
C2854      S2856   1.807       .  S
S2855      H2858   1.406       .  S
S2856      H2857   1.407       .  S
C2861      C2862   1.403       .  A
C2861      C2866   1.415       .  A
C2862      C2863   1.406       .  A
C2862      H2871   1.084       .  S
C2863      C2864   1.421       .  A
C2863      S2867   1.805       .  S
C2864      C2865   1.407       .  A
C2865      C2866   1.412       .  A
C2865      H2872   1.083       .  S
C2866      S2868   1.802       .  S
S2867      H2870   1.408       .  S
S2868      H2869   1.407       .  S
C2873      C2874   1.408       .  A
C2873      C2878   1.405       .  A
C2874      C2875   1.405       .  A
C2874      H2883   1.084       .  S
C2875      C2876   1.410       .  A
C2875      S2879   1.803       .  S
C2876      C2877   1.404       .  A
C2877      C2878   1.390       .  A
C2877      H2884   1.084       .  S
S2879      H2882   1.406       .  S
S2880      H2881   1.407       .  S
C2885      C2886   1.412       .  A
C2885      C2890   1.402       .  A
C2886      C2887   1.402       .  A
C2886      H2895   1.082       .  S
C2887      C2888   1.407       .  A
C2887      S2891   1.799       .  S
C2888      C2889   1.408       .  A
C2889      C2890   1.395       .  A
C2889      H2896   1.079       .  S
C2890      S2892   1.800       .  S
S2891      H2894   1.406       .  S
S2892      H2893   1.406       .  S
C2897      C2898   1.400       .  A
C2897      C2902   1.412       .  A
C2898      C2899   1.390       .  A
C2898      H2907   1.084       .  S
C2899      C2900   1.410       .  A
C2899      S2903   1.801       .  S
C2900      C2901   1.402       .  A
C2901      C2902   1.402       .  A
C2901      H2908   1.084       .  S
C2902      S2904   1.801       .  S
S2903      H2906   1.405       .  S
S2904      H2905   1.405       .  S
C2909      C2910   1.406       .  A
C2909      C2914   1.419       .  A
C2910      H2919   1.083       .  S
C2911      C2912   1.419       .  A
C2911      S2915   1.804       .  S
C2912      C2913   1.411       .  A
C2913      H2920   1.083       .  S
C2914      S2916   1.802       .  S
S2915      H2918   1.408       .  S
S2916      H2917   1.407       .  S
C2921      C2922   1.405       .  A
C2921      C2926   1.415       .  A
C2922      C2923   1.409       .  A
C2922      H2931   1.084       .  S
C2923      C2924   1.415       .  A
C2923      S2927   1.804       .  S
C2924      C2925   1.404       .  A
C2925      C2926   1.407       .  A
C2925      H2932   1.084       .  S
C2926      S2928   1.803       .  S
S2927      H2930   1.407       .  S
S2928      H2929   1.407       .  S
C2933      C2934   1.408       .  A
C2933      C2938   1.423       .  A
C2934      C2935   1.400       .  A
C2934      H2943   1.084       .  S
C2935      C2936   1.407       .  A
C2935      S2939   1.802       .  S
C2936      C2937   1.397       .  A
C2937      C2938   1.393       .  A
C2938      S2940   1.804       .  S
S2939      H2942   1.407       .  S
S2940      H2941   1.408       .  S
C2945      C2946   1.407       .  A
C2945      C2950   1.424       .  A
C2946      C2947   1.403       .  A
C2946      H2955   1.083       .  S
C2947      C2948   1.408       .  A
C2947      S2951   1.798       .  S
C2948      C2949   1.392       .  A
C2949      C2950   1.393       .  A
C2949      H2956   1.085       .  S
C2950      S2952   1.794       .  S
S2951      H2954   1.407       .  S
S2952      H2953   1.403       .  S
C2957      C2958   1.407   1_455  A
C2957      C2962   1.413   1_455  A
C2958      C2959   1.393       .  A
C2958      H2967   1.083   1_655  S
C2959      C2960   1.405       .  A
C2959      S2963   1.803       .  S
C2960      C2961   1.408       .  A
C2961      C2962   1.403       .  A
C2961      H2968   1.084       .  S
C2962      S2964   1.804       .  S
S2963      H2966   1.406       .  S
S2964      H2965   1.407   1_655  S
C2969      C2970   1.396       .  A
C2969      C2974   1.407       .  A
C2970      C2971   1.399   1_455  A
C2970      H2979   1.084       .  S
C2971      C2972   1.426       .  A
C2971      S2975   1.814       .  S
C2972      C2973   1.408   1_655  A
C2973      C2974   1.397       .  A
C2973      H2980   1.084       .  S
C2974      S2976   1.803       .  S
S2975      H2978   1.407       .  S
S2976      H2977   1.407       .  S
C2981      C2982   1.405       .  A
C2981      C2986   1.415       .  A
C2982      C2983   1.406       .  A
C2982      H2991   1.084       .  S
C2983      C2984   1.414       .  A
C2984      C2985   1.405       .  A
C2985      C2986   1.409       .  A
C2985      H2992   1.084       .  S
C2986      S2988   1.800       .  S
S2987      H2990   1.406       .  S
S2988      H2989   1.405       .  S
C2993      C2994   1.399       .  A
C2993      C2998   1.407       .  A
C2994      C2995   1.393       .  A
C2994      H3003   1.085       .  S
C2995      C2996   1.417       .  A
C2995      S2999   1.803       .  S
C2996      C2997   1.410       .  A
C2997      C2998   1.399       .  A
C2997      H3004   1.083       .  S
S2999      H3002   1.408       .  S
C3005      C3006   1.402       .  A
C3005      C3010   1.415       .  A
C3006      C3007   1.405   1_545  A
C3006      H3015   1.081       .  S
C3007      C3008   1.423       .  A
C3007      S3011   1.808       .  S
C3008      C3009   1.412       .  A
C3009      C3010   1.412   1_565  A
C3009      H3016   1.083       .  S
C3010      S3012   1.802       .  S
S3011      H3014   1.407   1_565  S
S3012      H3013   1.406       .  S
C3017      C3018   1.408       .  A
C3017      C3022   1.405       .  A
C3018      C3019   1.405       .  A
C3018      H3027   1.084       .  S
C3019      C3020   1.414       .  A
C3020      C3021   1.410       .  A
C3021      C3022   1.403       .  A
C3021      H3028   1.082   1_655  S
C3022      S3024   1.807       .  S
S3023      H3026   1.407   1_655  S
S3024      H3025   1.407       .  S
C3029      C3030   1.399       .  A
C3029      C3034   1.409       .  A
C3030      C3031   1.396   1_455  A
C3030      H3039   1.083       .  S
C3031      C3032   1.421       .  A
C3031      S3035   1.805       .  S
C3032      C3033   1.411   1_655  A
C3033      C3034   1.402       .  A
C3033      H3040   1.083       .  S
C3034      S3036   1.803       .  S
S3035      H3038   1.408       .  S
S3036      H3037   1.407       .  S
C3041      C3042   1.401       .  A
C3041      C3046   1.414       .  A
C3042      C3043   1.392       .  A
C3043      C3044   1.417       .  A
C3044      C3045   1.406       .  A
C3045      C3046   1.404       .  A
C3045      H3052   1.083       .  S
C3046      S3048   1.799       .  S
S3047      H3050   1.405       .  S
S3048      H3049   1.406       .  S
C3053      C3054   1.415       .  A
C3053      C3058   1.405       .  A
C3054      C3055   1.407       .  A
C3054      H3063   1.084       .  S
C3055      C3056   1.408       .  A
C3055      S3059   1.799       .  S
C3056      C3057   1.409       .  A
C3057      C3058   1.400       .  A
C3057      H3064   1.080       .  S
C3058      S3060   1.799       .  S
S3059      H3062   1.407       .  S
S3060      H3061   1.406       .  S
C3065      C3066   1.404       .  A
C3065      C3070   1.422       .  A
C3066      C3067   1.405       .  A
C3066      H3075   1.083       .  S
C3067      C3068   1.409       .  A
C3067      S3071   1.795       .  S
C3068      C3069   1.389       .  A
C3069      C3070   1.391       .  A
C3069      H3076   1.082       .  S
C3070      S3072   1.802       .  S
S3071      H3074   1.406       .  S
S3072      H3073   1.408       .  S
C3077      C3078   1.411       .  A
C3077      C3082   1.413       .  A
C3078      C3079   1.417       .  A
C3078      H3087   1.083       .  S
C3079      C3080   1.411       .  A
C3079      S3083   1.805       .  S
C3080      C3081   1.410       .  A
C3081      C3082   1.410       .  A
C3081      H3088   1.084       .  S
C3082      S3084   1.804       .  S
S3083      H3086   1.406       .  S
S3084      H3085   1.406       .  S
C3089      C3090   1.411       .  A
C3089      C3094   1.420       .  A
C3090      C3091   1.400       .  A
C3090      H3099   1.082       .  S
C3091      C3092   1.402       .  A
C3091      S3095   1.807   1_655  S
C3092      C3093   1.398       .  A
C3093      C3094   1.402       .  A
S3095      H3098   1.406   1_455  S
S3096      H3097   1.407       .  S
C3101      C3102   1.407       .  A
C3101      C3106   1.415       .  A
C3102      C3103   1.412       .  A
C3102      H3111   1.084       .  S
C3103      C3104   1.415       .  A
C3103      S3107   1.799       .  S
C3104      C3105   1.407       .  A
C3105      C3106   1.407       .  A
C3105      H3112   1.084       .  S
C3106      S3108   1.802       .  S
S3107      H3110   1.405       .  S
S3108      H3109   1.406       .  S
C3113      C3114   1.409       .  A
C3113      C3118   1.414       .  A
C3114      C3115   1.396       .  A
C3114      H3123   1.084       .  S
C3115      C3116   1.406       .  A
C3115      S3119   1.804       .  S
C3116      C3117   1.406       .  A
C3117      C3118   1.402       .  A
C3117      H3124   1.085       .  S
C3118      S3120   1.803       .  S
S3119      H3122   1.406       .  S
S3120      H3121   1.407       .  S
C3125      C3126   1.409       .  A
C3125      C3130   1.423       .  A
C3126      C3127   1.403       .  A
C3126      H3135   1.084       .  S
C3127      C3128   1.410       .  A
C3127      S3131   1.802       .  S
C3128      C3129   1.397       .  A
C3129      C3130   1.394       .  A
C3129      H3136   1.085       .  S
C3130      S3132   1.804       .  S
S3131      H3134   1.406       .  S
S3132      H3133   1.408       .  S
C3137      C3138   1.411       .  A
C3137      C3142   1.427       .  A
C3138      H3147   1.083       .  S
C3139      C3140   1.418       .  A
C3139      S3143   1.803       .  S
C3140      C3141   1.407       .  A
C3141      H3148   1.083       .  S
C3142      S3144   1.800       .  S
S3143      H3146   1.407       .  S
S3144      H3145   1.403       .  S
C3149      C3150   1.403       .  A
C3149      C3154   1.412       .  A
C3150      C3151   1.405       .  A
C3150      H3159   1.084       .  S
C3151      C3152   1.419       .  A
C3151      S3155   1.797       .  S
C3152      C3153   1.410       .  A
C3153      C3154   1.406       .  A
C3153      H3160   1.084       .  S
S3155      H3158   1.407       .  S
S3156      H3157   1.405       .  S
C3161      C3162   1.398       .  A
C3161      C3166   1.406       .  A
C3162      C3163   1.396       .  A
C3162      H3171   1.080       .  S
C3163      C3164   1.421       .  A
C3163      S3167   1.812       .  S
C3164      C3165   1.412       .  A
C3165      C3166   1.409       .  A
C3165      H3172   1.082       .  S
C3166      S3168   1.805       .  S
S3167      H3170   1.405       .  S
S3168      H3169   1.407       .  S
C3173      C3174   1.406       .  A
C3173      C3178   1.402       .  A
C3174      C3175   1.397       .  A
C3174      H3183   1.080       .  S
C3175      C3176   1.413       .  A
C3175      S3179   1.804       .  S
C3176      C3177   1.410       .  A
C3177      C3178   1.394       .  A
C3177      H3184   1.083       .  S
C3178      S3180   1.798       .  S
S3179      H3182   1.407       .  S
S3180      H3181   1.406       .  S
C3185      C3186   1.411       .  A
C3185      C3190   1.415       .  A
C3186      C3187   1.396       .  A
C3186      H3195   1.082       .  S
C3187      C3188   1.403       .  A
C3187      S3191   1.799       .  S
C3188      C3189   1.402       .  A
C3189      C3190   1.398       .  A
C3189      H3196   1.084       .  S
S3191      H3194   1.405       .  S
C3197      C3198   1.405       .  A
C3197      C3202   1.419       .  A
C3198      C3199   1.396       .  A
C3198      H3207   1.083       .  S
C3199      C3200   1.415       .  A
C3199      S3203   1.802       .  S
C3200      C3201   1.405       .  A
C3201      C3202   1.408       .  A
C3201      H3208   1.082       .  S
S3203      H3206   1.400       .  S
S3204      H3205   1.407       .  S
C3209      C3210   1.406       .  A
C3209      C3214   1.413       .  A
C3210      C3211   1.404       .  A
C3210      H3219   1.084       .  S
C3211      C3212   1.412       .  A
C3211      S3215   1.803       .  S
C3212      C3213   1.406       .  A
C3213      C3214   1.408       .  A
C3213      H3220   1.084       .  S
C3214      S3216   1.799       .  S
S3215      H3218   1.406       .  S
S3216      H3217   1.405       .  S
C3221      C3222   1.405       .  A
C3221      C3226   1.422       .  A
C3222      C3223   1.385       .  A
C3222      H3231   1.081       .  S
C3223      C3224   1.402       .  A
C3223      S3227   1.804       .  S
C3224      C3225   1.402       .  A
C3225      C3226   1.410       .  A
C3225      H3232   1.083       .  S
C3226      S3228   1.806       .  S
S3227      H3230   1.407       .  S
S3228      H3229   1.407       .  S
C3233      C3234   1.420       .  A
C3233      C3238   1.396       .  A
C3234      C3235   1.397       .  A
C3234      H3243   1.081       .  S
C3235      C3236   1.399       .  A
C3235      S3239   1.802       .  S
C3236      C3237   1.417       .  A
C3237      C3238   1.386       .  A
C3237      H3244   1.082       .  S
C3238      S3240   1.802       .  S
S3239      H3242   1.407       .  S
S3240      H3241   1.407       .  S
C3245      C3246   1.415       .  A
C3245      C3250   1.405       .  A
C3246      C3247   1.403       .  A
C3246      H3255   1.081       .  S
C3247      C3248   1.405       .  A
C3247      S3251   1.803       .  S
C3248      C3249   1.416       .  A
C3249      C3250   1.408       .  A
C3249      H3256   1.082       .  S
C3250      S3252   1.802       .  S
S3251      H3254   1.406       .  S
S3252      H3253   1.406       .  S
C3257      C3258   1.404       .  A
C3257      C3262   1.411       .  A
C3258      C3259   1.407       .  A
C3258      H3267   1.084       .  S
C3259      C3260   1.415       .  A
C3259      S3263   1.803       .  S
C3260      C3261   1.404       .  A
C3261      C3262   1.410       .  A
C3261      H3268   1.080       .  S
C3262      S3264   1.805       .  S
S3263      H3266   1.406       .  S
S3264      H3265   1.407       .  S
C3269      C3270   1.411   1_655  A
C3269      C3274   1.407   1_655  A
C3270      C3271   1.399       .  A
C3270      H3279   1.083   1_455  S
C3271      C3272   1.406       .  A
C3271      S3275   1.801       .  S
C3272      C3273   1.406       .  A
C3273      C3274   1.392       .  A
C3273      H3280   1.073       .  S
C3274      S3276   1.805       .  S
S3275      H3278   1.406       .  S
S3276      H3277   1.408   1_455  S
C3281      C3282   1.410       .  A
C3281      C3286   1.406       .  A
C3282      C3283   1.406       .  A
C3282      H3291   1.085       .  S
C3283      C3284   1.413   1_655  A
C3283      S3287   1.803       .  S
C3284      C3285   1.411   1_455  A
C3285      C3286   1.398       .  A
C3285      H3292   1.082   1_655  S
C3286      S3288   1.803       .  S
S3287      H3290   1.407   1_655  S
S3288      H3289   1.406       .  S
C3293      C3294   1.405       .  A
C3293      C3298   1.416       .  A
C3294      C3295   1.409       .  A
C3294      H3303   1.084       .  S
C3295      C3296   1.416       .  A
C3295      S3299   1.804       .  S
C3296      C3297   1.404       .  A
C3297      C3298   1.407       .  A
C3297      H3304   1.084       .  S
C3298      S3300   1.804       .  S
S3299      H3302   1.407       .  S
S3300      H3301   1.407       .  S
C3305      C3306   1.410       .  A
C3305      C3310   1.409   1_655  A
C3306      C3307   1.394   1_655  A
C3306      H3315   1.084       .  S
C3307      C3308   1.405       .  A
C3307      S3311   1.803       .  S
C3308      C3309   1.405       .  A
C3309      C3310   1.396       .  A
C3309      H3316   1.082       .  S
C3310      S3312   1.804       .  S
S3311      H3314   1.406       .  S
S3312      H3313   1.407   1_455  S
C3317      C3318   1.409       .  A
C3317      C3322   1.406       .  A
C3318      C3319   1.407       .  A
C3318      H3327   1.084       .  S
C3319      C3320   1.415       .  A
C3319      S3323   1.801       .  S
C3320      C3321   1.411       .  A
C3321      C3322   1.397       .  A
C3321      H3328   1.083   1_655  S
C3322      S3324   1.804       .  S
S3323      H3326   1.407   1_655  S
S3324      H3325   1.405       .  S
C3329      C3330   1.397       .  A
C3329      C3334   1.411       .  A
C3330      C3331   1.403       .  A
C3330      H3339   1.083       .  S
C3331      C3332   1.419       .  A
C3331      S3335   1.805       .  S
C3332      C3333   1.402       .  A
C3333      C3334   1.393       .  A
C3333      H3340   1.084       .  S
C3334      S3336   1.800   1_556  S
S3335      H3338   1.407       .  S
S3336      H3337   1.399       .  S
C3341      C3342   1.405       .  A
C3341      C3346   1.413       .  A
C3342      C3343   1.406       .  A
C3342      H3351   1.081       .  S
C3343      C3344   1.421       .  A
C3343      S3347   1.807       .  S
C3344      C3345   1.411       .  A
C3345      C3346   1.408       .  A
C3345      H3352   1.084       .  S
C3346      S3348   1.802       .  S
S3347      H3350   1.406       .  S
S3348      H3349   1.407       .  S
C3353      C3354   1.410       .  A
C3353      C3358   1.423       .  A
C3354      C3355   1.401       .  A
C3354      H3363   1.082       .  S
C3355      C3356   1.404       .  A
C3355      S3359   1.804       .  S
C3356      C3357   1.397       .  A
C3357      C3358   1.400       .  A
S3359      H3362   1.407   1_556  S
S3360      H3361   1.406       .  S
C3365      C3366   1.405       .  A
C3365      C3370   1.419       .  A
C3366      C3367   1.395       .  A
C3366      H3375   1.084       .  S
C3367      C3368   1.412       .  A
C3367      S3371   1.805       .  S
C3368      C3369   1.399       .  A
C3369      C3370   1.394       .  A
C3369      H3376   1.082       .  S
C3370      S3372   1.802       .  S
S3371      H3374   1.403       .  S
S3372      H3373   1.408       .  S
C3377      C3378   1.406       .  A
C3377      C3382   1.414       .  A
C3378      C3379   1.408       .  A
C3378      H3387   1.084       .  S
C3379      C3380   1.413       .  A
C3379      S3383   1.800       .  S
C3380      C3381   1.408       .  A
C3381      C3382   1.409       .  A
C3381      H3388   1.084       .  S
S3383      H3386   1.405       .  S
S3384      H3385   1.404       .  S
C3389      C3390   1.409       .  A
C3389      C3394   1.413       .  A
C3390      C3391   1.398       .  A
C3390      H3399   1.083       .  S
C3391      C3392   1.408       .  A
C3391      S3395   1.804       .  S
C3392      C3393   1.405       .  A
C3393      C3394   1.402       .  A
C3393      H3400   1.084       .  S
C3394      S3396   1.803       .  S
S3395      H3398   1.407       .  S
S3396      H3397   1.405       .  S
C3401      C3402   1.402       .  A
C3401      C3406   1.415       .  A
C3402      C3403   1.409       .  A
C3402      H3411   1.083       .  S
C3403      C3404   1.418       .  A
C3403      S3407   1.808       .  S
C3404      C3405   1.405       .  A
C3405      C3406   1.410       .  A
C3405      H3412   1.084       .  S
C3406      S3408   1.803       .  S
S3407      H3410   1.407       .  S
S3408      H3409   1.407       .  S
C3413      C3414   1.404       .  A
C3413      C3418   1.405       .  A
C3414      C3415   1.405       .  A
C3414      H3423   1.084       .  S
C3415      C3416   1.420       .  A
C3415      S3419   1.801       .  S
C3416      C3417   1.412       .  A
C3417      C3418   1.401       .  A
C3417      H3424   1.082       .  S
C3418      S3420   1.809       .  S
S3419      H3422   1.408       .  S
S3420      H3421   1.406       .  S
C3425      C3426   1.413       .  A
C3425      C3430   1.424       .  A
C3426      C3427   1.406       .  A
C3426      H3435   1.084       .  S
C3427      C3428   1.414       .  A
C3427      S3431   1.804       .  S
C3428      C3429   1.409       .  A
C3429      C3430   1.410       .  A
C3429      H3436   1.084       .  S
C3430      S3432   1.802       .  S
S3431      H3434   1.408       .  S
S3432      H3433   1.402       .  S
C3437      C3438   1.408       .  A
C3437      C3442   1.409       .  A
C3438      C3439   1.400       .  A
C3438      H3447   1.081       .  S
C3439      C3440   1.412       .  A
C3439      S3443   1.803       .  S
C3440      C3441   1.411       .  A
C3441      C3442   1.397       .  A
C3441      H3448   1.084       .  S
C3442      S3444   1.806       .  S
S3443      H3446   1.408       .  S
S3444      H3445   1.408       .  S
C3449      C3450   1.403       .  A
C3449      C3454   1.406       .  A
C3450      C3451   1.397       .  A
C3450      H3459   1.085       .  S
C3451      C3452   1.411       .  A
C3451      S3455   1.803       .  S
C3452      C3453   1.407       .  A
C3453      C3454   1.403       .  A
S3455      H3458   1.405   1_455  S
S3456      H3457   1.407       .  S
C3461      C3462   1.407       .  A
C3461      C3466   1.419       .  A
C3462      C3463   1.411       .  A
C3462      H3471   1.082       .  S
C3463      C3464   1.410       .  A
C3463      S3467   1.805       .  S
C3464      C3465   1.404       .  A
C3465      C3466   1.406       .  A
C3465      H3472   1.084       .  S
C3466      S3468   1.804       .  S
S3467      H3470   1.407       .  S
S3468      H3469   1.407       .  S
C3473      C3474   1.412       .  A
C3473      C3478   1.400       .  A
C3474      C3475   1.403       .  A
C3474      H3483   1.084       .  S
C3475      C3476   1.407       .  A
C3475      S3479   1.795       .  S
C3476      C3477   1.412       .  A
C3477      C3478   1.391       .  A
C3477      H3484   1.082       .  S
C3478      S3480   1.800       .  S
S3479      H3482   1.407       .  S
S3480      H3481   1.406       .  S
C3485      C3486   1.403       .  A
C3485      C3490   1.402       .  A
C3486      C3487   1.402       .  A
C3486      H3495   1.084       .  S
C3487      C3488   1.412       .  A
C3487      S3491   1.799       .  S
C3488      C3489   1.406       .  A
C3489      C3490   1.386       .  A
C3489      H3496   1.084       .  S
C3490      S3492   1.805       .  S
S3491      H3494   1.407       .  S
C3497      C3498   1.403       .  A
C3497      C3502   1.412       .  A
C3498      C3499   1.391       .  A
C3498      H3507   1.084       .  S
C3499      C3500   1.408       .  A
C3500      C3501   1.403       .  A
C3501      C3502   1.404       .  A
C3501      H3508   1.082       .  S
C3502      S3504   1.799       .  S
S3504      H3505   1.407       .  S
C3509      C3510   1.413       .  A
C3509      C3514   1.419       .  A
C3510      C3511   1.400       .  A
C3510      H3519   1.084       .  S
C3511      C3512   1.407       .  A
C3512      C3513   1.403       .  A
C3513      C3514   1.404       .  A
C3513      H3520   1.084       .  S
C3514      S3516   1.801       .  S
S3515      H3518   1.407       .  S
S3516      H3517   1.405       .  S
C3521      C3522   1.406       .  A
C3521      C3526   1.414       .  A
C3522      C3523   1.409       .  A
C3522      H3531   1.083       .  S
C3523      C3524   1.418       .  A
C3523      S3527   1.806       .  S
C3524      C3525   1.408       .  A
C3525      C3526   1.403       .  A
C3525      H3532   1.084       .  S
C3526      S3528   1.801       .  S
S3527      H3530   1.407       .  S
S3528      H3529   1.407       .  S
C3533      C3534   1.411       .  A
C3533      C3538   1.404       .  A
C3534      C3535   1.397       .  A
C3534      H3543   1.078       .  S
C3535      C3536   1.399       .  A
C3535      S3539   1.799       .  S
C3536      C3537   1.415       .  A
C3537      C3538   1.403       .  A
C3537      H3544   1.080       .  S
C3538      S3540   1.799       .  S
S3539      H3542   1.406       .  S
S3540      H3541   1.404       .  S
C3545      C3546   1.396       .  A
C3545      C3550   1.410       .  A
C3546      C3547   1.394       .  A
C3547      C3548   1.421       .  A
C3547      S3551   1.809       .  S
C3548      C3549   1.403       .  A
C3549      C3550   1.400       .  A
C3549      H3556   1.084       .  S
C3550      S3552   1.796       .  S
S3551      H3554   1.406       .  S
S3552      H3553   1.405       .  S
C3557      C3558   1.415       .  A
C3557      C3562   1.416       .  A
C3558      H3567   1.083       .  S
C3559      C3560   1.422       .  A
C3559      S3563   1.798       .  S
C3560      C3561   1.411       .  A
C3561      H3568   1.083       .  S
C3562      S3564   1.806       .  S
S3563      H3566   1.407       .  S
S3564      H3565   1.408       .  S
C3569      C3570   1.400       .  A
C3569      C3574   1.413       .  A
C3570      C3571   1.394       .  A
C3570      H3579   1.084       .  S
C3571      C3572   1.417       .  A
C3571      S3575   1.811   1_556  S
C3572      C3573   1.408       .  A
C3573      C3574   1.409       .  A
C3573      H3580   1.084       .  S
C3574      S3576   1.802       .  S
S3575      H3578   1.407       .  S
S3576      H3577   1.405       .  S
C3581      C3582   1.401       .  A
C3581      C3586   1.410       .  A
C3582      C3583   1.398       .  A
C3582      H3591   1.085       .  S
C3583      C3584   1.422       .  A
C3583      S3587   1.803       .  S
C3584      C3585   1.409       .  A
C3585      C3586   1.399       .  A
C3585      H3592   1.083       .  S
C3586      S3588   1.804       .  S
S3587      H3590   1.407       .  S
S3588      H3589   1.408       .  S
C3593      C3594   1.397       .  A
C3593      C3598   1.407       .  A
C3594      C3595   1.395       .  A
C3594      H3603   1.086       .  S
C3595      C3596   1.424       .  A
C3595      S3599   1.803       .  S
C3596      C3597   1.411       .  A
C3597      C3598   1.402       .  A
C3597      H3604   1.083       .  S
C3598      S3600   1.801       .  S
S3599      H3602   1.408       .  S
S3600      H3601   1.407       .  S
C3605      C3606   1.404       .  A
C3605      C3610   1.424       .  A
C3606      C3607   1.400       .  A
C3606      H3615   1.084       .  S
C3607      C3608   1.409       .  A
C3607      S3611   1.796       .  S
C3608      C3609   1.393       .  A
C3609      C3610   1.394       .  A
C3610      S3612   1.800       .  S
S3611      H3614   1.407       .  S
S3612      H3613   1.408       .  S
C3617      C3618   1.405       .  A
C3617      C3622   1.416       .  A
C3618      C3619   1.409       .  A
C3618      H3627   1.084       .  S
C3619      C3620   1.415       .  A
C3619      S3623   1.804       .  S
C3620      C3621   1.405       .  A
C3621      C3622   1.408       .  A
C3621      H3628   1.084       .  S
C3622      S3624   1.804       .  S
S3623      H3626   1.405       .  S
S3624      H3625   1.407       .  S
C3629      C3630   1.406       .  A
C3629      C3634   1.412       .  A
C3630      C3631   1.407       .  A
C3630      H3639   1.084       .  S
C3631      C3632   1.417       .  A
C3631      S3635   1.802       .  S
C3632      C3633   1.402       .  A
C3633      C3634   1.390       .  A
C3633      H3640   1.081       .  S
C3634      S3636   1.799       .  S
S3635      H3638   1.407       .  S
S3636      H3637   1.404       .  S
C3641      C3642   1.402       .  A
C3641      C3646   1.408       .  A
C3642      C3643   1.395       .  A
C3642      H3651   1.084       .  S
C3643      C3644   1.415       .  A
C3643      S3647   1.803       .  S
C3644      C3645   1.404       .  A
C3645      C3646   1.399       .  A
C3645      H3652   1.083       .  S
C3646      S3648   1.803       .  S
S3647      H3650   1.408       .  S
S3648      H3649   1.406       .  S
C3653      C3654   1.404       .  A
C3653      C3658   1.415       .  A
C3654      C3655   1.407       .  A
C3654      H3663   1.081       .  S
C3655      C3656   1.415       .  A
C3655      S3659   1.804       .  S
C3656      C3657   1.405       .  A
C3657      C3658   1.409       .  A
C3657      H3664   1.084       .  S
C3658      S3660   1.803       .  S
S3659      H3662   1.406       .  S
S3660      H3661   1.407       .  S
C3665      C3666   1.408       .  A
C3665      C3670   1.404       .  A
C3666      C3667   1.404       .  A
C3666      H3675   1.084       .  S
C3667      C3668   1.413       .  A
C3667      S3671   1.802       .  S
C3668      C3669   1.408       .  A
C3669      C3670   1.397       .  A
C3669      H3676   1.082       .  S
C3670      S3672   1.805       .  S
S3671      H3674   1.407       .  S
S3672      H3673   1.407       .  S
C3677      C3678   1.409       .  A
C3677      C3682   1.427       .  A
C3678      C3679   1.400       .  A
C3678      H3687   1.084       .  S
C3679      C3680   1.407       .  A
C3679      S3683   1.801       .  S
C3680      C3681   1.396       .  A
C3681      C3682   1.401       .  A
C3681      H3688   1.084       .  S
C3682      S3684   1.812       .  S
S3683      H3686   1.407       .  S
S3684      H3685   1.407       .  S
C3689      C3690   1.415       .  A
C3689      C3694   1.420       .  A
C3690      C3691   1.408       .  A
C3690      H3699   1.083       .  S
C3691      C3692   1.411       .  A
C3691      S3695   1.803       .  S
C3692      C3693   1.409       .  A
C3693      C3694   1.411       .  A
C3693      H3700   1.083       .  S
C3694      S3696   1.800       .  S
S3695      H3698   1.407       .  S
S3696      H3697   1.408       .  S
C3701      C3702   1.401       .  A
C3701      C3706   1.411       .  A
C3702      C3703   1.392       .  A
C3702      H3711   1.085       .  S
C3703      C3704   1.416       .  A
C3703      S3707   1.800       .  S
C3704      C3705   1.408       .  A
C3705      C3706   1.405       .  A
C3705      H3712   1.083       .  S
C3706      S3708   1.805       .  S
S3707      H3710   1.408       .  S
S3708      H3709   1.407       .  S
