geometry optimzed in LAMMPS
_audit_creation_date              2020-12-01 
_audit_creation_method            'lammps2cif' 
_symmetry_space_group_name_H-M    'P1' 
_symmetry_Int_Tables_number       1 
_symmetry_cell_setting            triclinic 
loop_ 
_symmetry_equiv_pos_as_xyz 
  x,y,z 
_cell_length_a                    59.33654216 
_cell_length_b                    59.34313122463707 
_cell_length_c                    27.44400594278349 
_cell_angle_alpha                 89.99658868653441 
_cell_angle_beta                  90.00084515640725 
_cell_angle_gamma                 120.02461961956296 
loop_ 
_atom_site_label 
_atom_site_type_symbol 
_atom_site_fract_x 
_atom_site_fract_y 
_atom_site_fract_z 
_atom_site_charge 
O1          O  0.30166448  0.08776606  0.03231234    -0.84000
C2          C  0.24874788  0.06979551  0.20840497     0.95400
O3          O  0.26859065  0.09136142  0.19780127    -0.73100
O4          O  0.30345267  0.07862643  0.17581935    -0.76700
Al5        Al  0.29196876  0.09950789  0.14370413     1.49000
C6          C  0.31897765  0.07396291  0.15299113     0.90700
O7          O  0.26293559  0.02631659  0.10595648    -0.82900
O8          O  0.23676711  0.06955927  0.04046402    -0.76400
Al9        Al  0.28214347  0.05744094  0.07012041     1.90100
O10         O  0.22563642  0.02614566  0.10101274    -0.75500
O11         O  0.23990083  0.09735676  0.11607699    -0.75400
O12         O  0.23349085  0.05532288  0.17582509    -0.81000
O13         O  0.28243139  0.12182495  0.11542799    -0.79200
O14         O  0.27005360  0.07338372  0.10753595    -1.15400
O15         O  0.32035128  0.11315841  0.09553097    -0.74600
C16         C  0.32054580  0.10772480  0.05068580     0.96200
C17         C  0.23845739  0.01479320  0.11130954     0.92600
Al18       Al  0.23616734  0.06276708  0.10825682     1.55600
O19         O  0.31341955  0.06576943  0.10947086    -0.79200
C20         C  0.26024429  0.11929197  0.10978452     0.96700
C21         C  0.24560800  0.06076123  0.00874666     0.91600
O22         O  0.25530164  0.04687926  0.02133040    -0.84500
O23         O  0.30167031  0.08776752  0.28231009    -0.84000
C24         C  0.24875495  0.06978922  0.45840729     0.95400
O25         O  0.26860286  0.09135250  0.44781072    -0.73100
O26         O  0.30346520  0.07862232  0.42581098    -0.76700
Al27       Al  0.29197854  0.09950507  0.39370913     1.49000
C28         C  0.31899077  0.07396221  0.40297661     0.90700
O29         O  0.26294324  0.02631408  0.35595137    -0.82900
O30         O  0.23677755  0.06956160  0.29046552    -0.76400
Al31       Al  0.28215145  0.05744075  0.32011548     1.90100
O32         O  0.22564520  0.02614593  0.35100974    -0.75500
O33         O  0.23991006  0.09735618  0.36607983    -0.75400
O34         O  0.23349779  0.05532108  0.42582347    -0.81000
O35         O  0.28244016  0.12182575  0.36544801    -0.79200
O36         O  0.27006273  0.07338300  0.35753679    -1.15400
O37         O  0.32035725  0.11315927  0.34553063    -0.74600
C38         C  0.32055026  0.10772750  0.30068407     0.96200
C39         C  0.23846459  0.01479168  0.36130520     0.92600
Al40       Al  0.23617678  0.06276733  0.35825696     1.55600
O41         O  0.31343078  0.06576991  0.35945636    -0.79200
C42         C  0.26025337  0.11929223  0.35979597     0.96700
C43         C  0.24561490  0.06076102  0.25874667     0.91600
O44         O  0.25530812  0.04687859  0.27132881    -0.84500
O45         O  0.21483532  0.91466517  0.20767721    -0.84000
C46         C  0.18000243  0.93278074  0.03155537     0.95400
O47         O  0.17821768  0.91119474  0.04215446    -0.73100
O48         O  0.22578330  0.92377806  0.06416687    -0.76700
Al49       Al  0.19337768  0.90297510  0.09626987     1.49000
C50         C  0.24596023  0.92840118  0.08701071     0.90700
O51         O  0.23775269  0.97613454  0.13401285    -0.82900
O52         O  0.16827481  0.93305012  0.19949691    -0.76400
Al53       Al  0.22573074  0.94500464  0.16985553     1.90100
O54         O  0.20068770  0.97643113  0.13893537    -0.75500
O55         O  0.14351560  0.90527261  0.12388016    -0.75400
O56         O  0.17926475  0.94727025  0.06413690    -0.81000
O57         O  0.16147266  0.88072913  0.12451446    -0.79200
O58         O  0.19767748  0.92912394  0.13243239    -1.15400
O59         O  0.20803602  0.88924976  0.14446825    -0.74600
C60         C  0.21370486  0.89468789  0.18930680     0.96200
C61         C  0.22487253  0.98772071  0.12864754     0.92600
Al62       Al  0.17448122  0.93982995  0.13170317     1.55600
O63         O  0.24861358  0.93660042  0.13052489    -0.79200
C64         C  0.14184365  0.88330593  0.13013122     0.96700
C65         C  0.18592252  0.94180478  0.23121275     0.91600
O66         O  0.20951546  0.95563559  0.21862900    -0.84500
O67         O  0.21482741  0.91465967  0.45767667    -0.84000
C68         C  0.17999938  0.93277233  0.28155374     0.95400
O69         O  0.17821018  0.91118506  0.29215735    -0.73100
O70         O  0.22577797  0.92377113  0.31416490    -0.76700
Al71       Al  0.19337323  0.90296911  0.34627175     1.49000
C72         C  0.24595546  0.92839494  0.33700795     0.90700
O73         O  0.23775395  0.97613024  0.38401376    -0.82900
O74         O  0.16827298  0.93305157  0.44949383    -0.76400
Al75       Al  0.22572737  0.94499935  0.41985575     1.90100
O76         O  0.20069023  0.97642989  0.38892445    -0.75500
O77         O  0.14351321  0.90526895  0.37388326    -0.75400
O78         O  0.17926433  0.94726469  0.31413196    -0.81000
O79         O  0.16147000  0.88072506  0.37452237    -0.79200
O80         O  0.19767474  0.92911994  0.38243162    -1.15400
O81         O  0.20803281  0.88924544  0.39446832    -0.74600
C82         C  0.21369888  0.89468331  0.43930736     0.96200
C83         C  0.22487611  0.98771830  0.37864290     0.92600
Al84       Al  0.17448042  0.93982778  0.38169917     1.55600
O85         O  0.24860869  0.93659293  0.38052356    -0.79200
C86         C  0.14184134  0.88330226  0.38013942     0.96700
C87         C  0.18591931  0.94180459  0.48121207     0.91600
O88         O  0.20951310  0.95563226  0.46863008    -0.84500
O89         O  0.36361716  0.11878170  0.29110897    -0.84000
C90         C  0.41654404  0.15358712  0.11499828     0.95400
O91         O  0.39672909  0.15534788  0.12559299    -0.73100
O92         O  0.36176295  0.10774850  0.14760037    -0.76700
Al93       Al  0.37333500  0.14014885  0.17968690     1.49000
C94         C  0.34620579  0.08757132  0.17045969     0.90700
O95         O  0.40212490  0.09584582  0.21756013    -0.82900
O96         O  0.42854501  0.16532138  0.28293726    -0.76400
Al97       Al  0.38303483  0.10786353  0.25334043     1.90100
O98         O  0.43951438  0.13291899  0.22239645    -0.75500
O99         O  0.42548573  0.19002217  0.20730893    -0.75400
O100        O  0.43177273  0.15432499  0.14758325    -0.81000
O101        O  0.38296099  0.17202721  0.20793548    -0.79200
O102        O  0.39520484  0.13589073  0.21587223    -1.15400
O103        O  0.34493799  0.12545890  0.22786019    -0.74600
C104        C  0.34473659  0.11983752  0.27271562     0.96200
C105        C  0.42659888  0.10872670  0.21219672     0.92600
Al106      Al  0.42911305  0.15910434  0.21514452     1.55600
O107        O  0.35173733  0.08495199  0.21400844    -0.79200
C108        C  0.40517245  0.19165927  0.21358103     0.96700
C109        C  0.41966194  0.14768151  0.31466566     0.91600
O110        O  0.40989728  0.12409347  0.30209604    -0.84500
O111        O  0.36361159  0.11877081  0.04110915    -0.84000
C112        C  0.41655265  0.15359667  0.36500335     0.95400
O113        O  0.39673963  0.15535932  0.37560767    -0.73100
O114        O  0.36177381  0.10775427  0.39759239    -0.76700
Al115      Al  0.37334353  0.14014921  0.42969864     1.49000
C116        C  0.34621951  0.08757189  0.42044235     0.90700
O117        O  0.40214081  0.09584747  0.46754001    -0.82900
O118        O  0.42854508  0.16531254  0.03293832    -0.76400
Al119      Al  0.38303114  0.10785635  0.00333458     1.90100
O120        O  0.43952779  0.13292141  0.47239199    -0.75500
O121        O  0.42549297  0.19002117  0.45731750    -0.75400
O122        O  0.43178097  0.15432820  0.39758328    -0.81000
O123        O  0.38296808  0.17202347  0.45796777    -0.79200
O124        O  0.39521376  0.13588752  0.46587415    -1.15400
O125        O  0.34494399  0.12544886  0.47786818    -0.74600
C126        C  0.34473317  0.11983166  0.02271818     0.96200
C127        C  0.42661476  0.10873046  0.46218269     0.92600
Al128      Al  0.42912214  0.15910353  0.46514716     1.55600
O129        O  0.35175240  0.08494619  0.46398636    -0.79200
C130        C  0.40517981  0.19165766  0.46359819     0.96700
C131        C  0.41965807  0.14767161  0.06466414     0.91600
O132        O  0.40989246  0.12408353  0.05209289    -0.84500
O133        O  0.44964459  0.03183182  0.11608728    -0.84000
C134        C  0.48471971  0.08475766  0.29213043     0.95400
O135        O  0.48642179  0.06491247  0.28151683    -0.73100
O136        O  0.43876638  0.03006057  0.25960236    -0.76700
Al137      Al  0.47113141  0.04152519  0.22743844     1.49000
C138        C  0.41854650  0.01456547  0.23678453     0.90700
O139        O  0.42705765  0.07063763  0.18969150    -0.82900
O140        O  0.49645992  0.09671011  0.12419846    -0.76400
Al141      Al  0.43890605  0.05138998  0.15388451     1.90100
O142        O  0.46423465  0.10790645  0.18467371    -0.75500
O143        O  0.52108802  0.09356954  0.19985728    -0.75400
O144        O  0.48549690  0.10000951  0.25955253    -0.81000
O145        O  0.50298109  0.05104204  0.19909479    -0.79200
O146        O  0.46694886  0.06345213  0.19128174    -1.15400
O147        O  0.45633263  0.01313393  0.17929298    -0.74600
C148        C  0.45068891  0.01294104  0.13445731     0.96200
C149        C  0.44005293  0.09511433  0.19496607     0.92600
Al150      Al  0.49026796  0.09732957  0.19198653     1.55600
O151        O  0.41591431  0.02014276  0.19327620    -0.79200
C152        C  0.52265301  0.07323004  0.19347598     0.96700
C153        C  0.47881091  0.08788433  0.09248181     0.91600
O154        O  0.45522828  0.07821057  0.10506334    -0.84500
O155        O  0.44967133  0.03184216  0.36608476    -0.84000
C156        C  0.48470039  0.08475026  0.04213607     0.95400
O157        O  0.48640757  0.06490741  0.03152817    -0.73100
O158        O  0.43875849  0.03005253  0.00959382    -0.76700
Al159      Al  0.47114434  0.04153292  0.47744557     1.49000
C160        C  0.41855793  0.01457213  0.48677087     0.90700
O161        O  0.42707604  0.07064398  0.43967526    -0.82900
O162        O  0.49648242  0.09671679  0.37419699    -0.76400
Al163      Al  0.43892733  0.05139809  0.40387477     1.90100
O164        O  0.46425249  0.10791400  0.43466139    -0.75500
O165        O  0.52110446  0.09357892  0.44987048    -0.75400
O166        O  0.48548450  0.10000434  0.00955608    -0.81000
O167        O  0.50299777  0.05105139  0.44911716    -0.79200
O168        O  0.46696629  0.06346018  0.44128132    -1.15400
O169        O  0.45635059  0.01314147  0.42929648    -0.74600
C170        C  0.45070909  0.01294868  0.38445889     0.96200
C171        C  0.44007053  0.09512062  0.44495123     0.92600
Al172      Al  0.49028520  0.09733779  0.44198688     1.55600
O173        O  0.41593177  0.02014960  0.44325936    -0.79200
C174        C  0.52266922  0.07323925  0.44349275     0.96700
C175        C  0.47883368  0.08789189  0.34247863     0.91600
O176        O  0.45525155  0.07821996  0.35505927    -0.84500
O177        O  0.41861029  0.96988680  0.12483059    -0.84000
C178        C  0.40058513  0.91702480  0.44865362     0.95400
O179        O  0.42214647  0.93688006  0.45923503    -0.73100
O180        O  0.40948936  0.97178181  0.48133090    -0.76700
Al181      Al  0.43033806  0.96022521  0.01338061     1.49000
C182        C  0.40487219  0.98731856  0.00419393     0.90700
O183        O  0.35720422  0.93131627  0.05107834    -0.82900
O184        O  0.40031782  0.90500561  0.11660753    -0.76400
Al185      Al  0.38829247  0.95043809  0.08698438     1.90100
O186        O  0.35693424  0.89396782  0.05597662    -0.75500
O187        O  0.42812179  0.90811406  0.04102060    -0.75400
O188        O  0.38612346  0.90176943  0.48124359    -0.81000
O189        O  0.45263805  0.95063624  0.04157532    -0.79200
O190        O  0.40420868  0.93832323  0.04954559    -1.15400
O191        O  0.44402381  0.98857812  0.06162416    -0.74600
C192        C  0.43857961  0.98876402  0.10647144     0.96200
C193        C  0.34565257  0.90685051  0.04561105     0.92600
Al194      Al  0.39354723  0.90442883  0.04880438     1.55600
O195        O  0.39668719  0.98175709  0.04771833    -0.79200
C196        C  0.45007724  0.92844187  0.04724868     0.96700
C197        C  0.39152990  0.91386088  0.14831431     0.91600
O198        O  0.37765485  0.92355801  0.13570844    -0.84500
O199        O  0.41862196  0.96989575  0.37483706    -0.84000
C200        C  0.40057990  0.91701898  0.19865099     0.95400
O201        O  0.42213961  0.93687707  0.20922971    -0.73100
O202        O  0.40948250  0.97177669  0.23133953    -0.76700
Al203      Al  0.43034034  0.96023207  0.26337888     1.49000
C204        C  0.40487680  0.98732861  0.25421050     0.90700
O205        O  0.35720893  0.93132726  0.30109158    -0.82900
O206        O  0.40032367  0.90501462  0.36661027    -0.76400
Al207      Al  0.38830037  0.95044806  0.33699519     1.90100
O208        O  0.35693895  0.89397855  0.30598548    -0.75500
O209        O  0.42812332  0.90811953  0.29102291    -0.75400
O210        O  0.38612184  0.90176227  0.23124364    -0.81000
O211        O  0.45264184  0.95064133  0.29156040    -0.79200
O212        O  0.40421337  0.93833150  0.29954982    -1.15400
O213        O  0.44403246  0.98858370  0.31162489    -0.74600
C214        C  0.43859274  0.98877056  0.35647457     0.96200
C215        C  0.34565754  0.90686146  0.29561962     0.92600
Al216      Al  0.39355063  0.90443684  0.29880943     1.55600
O217        O  0.39669558  0.98176791  0.29773638    -0.79200
C218        C  0.45007966  0.92844696  0.29724250     0.96700
C219        C  0.39153647  0.91386957  0.39831835     0.91600
O220        O  0.37766199  0.92356753  0.38571576    -0.84500
O221        O  0.24570530  0.88360583  0.44891177    -0.84000
C222        C  0.26365494  0.84865467  0.12507064     0.95400
O223        O  0.24210205  0.84695202  0.11446654    -0.73100
O224        O  0.25483196  0.89455230  0.09242981    -0.76700
Al225      Al  0.23395177  0.86216513  0.06033562     1.49000
C226        C  0.25952775  0.91474716  0.06957666     0.90700
O227        O  0.30712195  0.90632006  0.02263747    -0.82900
O228        O  0.26388723  0.83690320  0.45713576    -0.76400
Al229      Al  0.27602528  0.89441366  0.48675166     1.90100
O230        O  0.30729577  0.86919958  0.01767184    -0.75500
O231        O  0.23610211  0.81223348  0.03281183    -0.75400
O232        O  0.27812473  0.84787348  0.09249106    -0.81000
O233        O  0.21164226  0.83028742  0.03209832    -0.79200
O234        O  0.26007027  0.86637244  0.02418221    -1.15400
O235        O  0.22030702  0.87689784  0.01211914    -0.74600
C236        C  0.22575822  0.88254984  0.46727620     0.96200
C237        C  0.31862689  0.89336594  0.02806740     0.92600
Al238      Al  0.27067885  0.84310015  0.02493006     1.55600
O239        O  0.26772104  0.91736882  0.02606179    -0.79200
C240        C  0.21416924  0.81062767  0.02653661     0.96700
C241        C  0.27269377  0.85455076  0.42541679     0.91600
O242        O  0.28659116  0.87813205  0.43800184    -0.84500
O243        O  0.24570903  0.88360532  0.19890835    -0.84000
C244        C  0.26366086  0.84865891  0.37507131     0.95400
O245        O  0.24210608  0.84695036  0.36446256    -0.73100
O246        O  0.25483120  0.89454896  0.34242445    -0.76700
Al247      Al  0.23395496  0.86216120  0.31033052     1.49000
C248        C  0.25952428  0.91474278  0.31957066     0.90700
O249        O  0.30712494  0.90632615  0.27263239    -0.82900
O250        O  0.26388751  0.83689746  0.20713290    -0.76400
Al251      Al  0.27602913  0.89440978  0.23674819     1.90100
O252        O  0.30730467  0.86920848  0.26767462    -0.75500
O253        O  0.23611354  0.81223312  0.28281396    -0.75400
O254        O  0.27813404  0.84788104  0.34249476    -0.81000
O255        O  0.21165050  0.83028351  0.28209360    -0.79200
O256        O  0.26007541  0.86637207  0.27417928    -1.15400
O257        O  0.22030724  0.87688993  0.26211251    -0.74600
C258        C  0.22576310  0.88255146  0.21727401     0.96200
C259        C  0.31863257  0.89337496  0.27806893     0.92600
Al260      Al  0.27068913  0.84310406  0.27493218     1.55600
O261        O  0.26771671  0.91736472  0.27605468    -0.79200
C262        C  0.21417951  0.81062480  0.27653636     0.96700
C263        C  0.27269172  0.85454526  0.17541414     0.91600
O264        O  0.28659207  0.87812624  0.18799854    -0.84500
O265        O  0.75222954  0.63665779  0.29124867    -0.84000
C266        C  0.73413377  0.58376389  0.11512160     0.95400
O267        O  0.75570053  0.60360770  0.12570755    -0.73100
O268        O  0.74301075  0.63850956  0.14773784    -0.76700
Al269      Al  0.76388493  0.62698918  0.17979947     1.49000
C270        C  0.73838215  0.65404924  0.17060325     0.90700
O271        O  0.69081238  0.59813607  0.21765817    -0.82900
O272        O  0.73390409  0.57179293  0.28306371    -0.76400
Al273      Al  0.72189286  0.61723252  0.25347445     1.90100
O274        O  0.69053105  0.56077830  0.22256743    -0.75500
O275        O  0.76163804  0.57487501  0.20736602    -0.75400
O276        O  0.71964220  0.56853111  0.14771292    -0.81000
O277        O  0.78616398  0.61740224  0.20801160    -0.79200
O278        O  0.73777142  0.60509991  0.21599793    -1.15400
O279        O  0.77758069  0.65537395  0.22798657    -0.74600
C280        C  0.77215956  0.65555623  0.27284876     0.96200
C281        C  0.67926041  0.57367207  0.21225017     0.92600
Al282      Al  0.72710025  0.57120706  0.21526990     1.55600
O283        O  0.73025917  0.64852316  0.21416960    -0.79200
C284        C  0.78358805  0.59519742  0.21361273     0.96700
C285        C  0.72510626  0.58063406  0.31478408     0.91600
O286        O  0.71125613  0.59036006  0.30220061    -0.84500
O287        O  0.75223126  0.63665340  0.04125240    -0.84000
C288        C  0.73413055  0.58376835  0.36512027     0.95400
O289        O  0.75569746  0.60361158  0.37570721    -0.73100
O290        O  0.74300671  0.63851263  0.39773962    -0.76700
Al291      Al  0.76388141  0.62699250  0.42979952     1.49000
C292        C  0.73837994  0.65405319  0.42060633     0.90700
O293        O  0.69081000  0.59813968  0.46766330    -0.82900
O294        O  0.73390363  0.57178766  0.03306372    -0.76400
Al295      Al  0.72189352  0.61722901  0.00348034     1.90100
O296        O  0.69052885  0.56078184  0.47256906    -0.75500
O297        O  0.76163418  0.57487833  0.45735998    -0.75400
O298        O  0.71963794  0.56853585  0.39771093    -0.81000
O299        O  0.78615976  0.61740563  0.45801143    -0.79200
O300        O  0.73776835  0.60510285  0.46599823    -1.15400
O301        O  0.77757733  0.65537654  0.47798683    -0.74600
C302        C  0.77216063  0.65555200  0.02285133     0.96200
C303        C  0.67925841  0.57367583  0.46225327     0.92600
Al304      Al  0.72709698  0.57121014  0.46526738     1.55600
O305        O  0.73025749  0.64852709  0.46417349    -0.79200
C306        C  0.78358352  0.59520071  0.46361171     0.96700
C307        C  0.72510771  0.58062962  0.06478620     0.91600
O308        O  0.71125758  0.59035608  0.05220544    -0.84500
O309        O  0.57932054  0.55033351  0.11585279    -0.84000
C310        C  0.59735480  0.51546497  0.29196088     0.95400
O311        O  0.57578870  0.51372847  0.28136545    -0.73100
O312        O  0.58850727  0.56133576  0.25936713    -0.76700
Al313      Al  0.56762522  0.52894358  0.22727995     1.49000
C314        C  0.59314580  0.58151298  0.23651295     0.90700
O315        O  0.64073358  0.57313959  0.18947011    -0.82900
O316        O  0.59755831  0.50371143  0.12402472    -0.76400
Al317      Al  0.60964806  0.56119890  0.15364137     1.90100
O318        O  0.64094092  0.53603075  0.18446508    -0.75500
O319        O  0.56983720  0.47906821  0.19974020    -0.75400
O320        O  0.61184386  0.51472228  0.25937454    -0.81000
O321        O  0.54533978  0.49708323  0.19903362    -0.79200
O322        O  0.59373615  0.53317037  0.19108895    -1.15400
O323        O  0.55394925  0.54364312  0.17909893    -0.74600
C324        C  0.55937225  0.54925707  0.13424096     0.96200
C325        C  0.65224915  0.56019404  0.19483024     0.92600
Al326      Al  0.60437422  0.50992732  0.19181293     1.55600
O327        O  0.60130871  0.58413524  0.19297098    -0.79200
C328        C  0.54790593  0.47745248  0.19341901     0.96700
C329        C  0.60637216  0.52135817  0.09230252     0.91600
O330        O  0.62023994  0.54494326  0.10488201    -0.84500
O331        O  0.57931964  0.55033193  0.36584960    -0.84000
C332        C  0.59735230  0.51546380  0.04196140     0.95400
O333        O  0.57578625  0.51372754  0.03136546    -0.73100
O334        O  0.58850516  0.56133553  0.00937181    -0.76700
Al335      Al  0.56762610  0.52894740  0.47728048     1.49000
C336        C  0.59314559  0.58151736  0.48650599     0.90700
O337        O  0.64073247  0.57314304  0.43946785    -0.82900
O338        O  0.59756002  0.50371382  0.37402543    -0.76400
Al339      Al  0.60964748  0.56120046  0.40363808     1.90100
O340        O  0.64094068  0.53603423  0.43446831    -0.75500
O341        O  0.56983775  0.47907099  0.44973919    -0.75400
O342        O  0.61184192  0.51472181  0.00937559    -0.81000
O343        O  0.54534018  0.49708586  0.44903931    -0.79200
O344        O  0.59373642  0.53317294  0.44108878    -1.15400
O345        O  0.55394920  0.54364396  0.42909653    -0.74600
C346        C  0.55937150  0.54925582  0.38423776     0.96200
C347        C  0.65224802  0.56019771  0.44483164     0.92600
Al348      Al  0.60437467  0.50993010  0.44181429     1.55600
O349        O  0.60130684  0.58413754  0.44296311    -0.79200
C350        C  0.54790643  0.47745548  0.44342036     0.96700
C351        C  0.60637470  0.52136000  0.34230222     0.91600
O352        O  0.62024158  0.54494518  0.35488135    -0.84500
O353        O  0.63454771  0.75410691  0.44866770    -0.84000
C354        C  0.58164228  0.73600060  0.12485280     0.95400
O355        O  0.60148353  0.75757089  0.11425682    -0.73100
O356        O  0.63643041  0.74495922  0.09217363    -0.76700
Al357      Al  0.62485509  0.76578700  0.06011575     1.49000
C358        C  0.65196945  0.74032913  0.06930697     0.90700
O359        O  0.59601848  0.69269457  0.02239145    -0.82900
O360        O  0.56963966  0.73575817  0.45690913    -0.76400
Al361      Al  0.61511363  0.72378340  0.48650413     1.90100
O362        O  0.55864688  0.69238274  0.01746175    -0.75500
O363        O  0.57268962  0.76349244  0.03260662    -0.75400
O364        O  0.56640201  0.72151353  0.09226936    -0.81000
O365        O  0.61521442  0.78804594  0.03192637    -0.79200
O366        O  0.60297140  0.73965681  0.02395407    -1.15400
O367        O  0.65323331  0.77949806  0.01188100    -0.74600
C368        C  0.65343412  0.77406241  0.46703605     0.96200
C369        C  0.57155234  0.68113296  0.02786187     0.92600
Al370      Al  0.56906378  0.72896030  0.02471135     1.55600
O371        O  0.64642135  0.73216854  0.02577117    -0.79200
C372        C  0.59299647  0.78546089  0.02639665     0.96700
C373        C  0.57850306  0.72697817  0.42519559     0.91600
O374        O  0.58822948  0.71312918  0.43779144    -0.84500
O375        O  0.63454672  0.75409498  0.19866726    -0.84000
C376        C  0.58163930  0.73600538  0.37485135     0.95400
O377        O  0.60147875  0.75757603  0.36425038    -0.73100
O378        O  0.63642856  0.74496572  0.34217656    -0.76700
Al379      Al  0.62485065  0.76578935  0.31011081     1.49000
C380        C  0.65196767  0.74033452  0.31931259     0.90700
O381        O  0.59601810  0.69269485  0.27239873    -0.82900
O382        O  0.56963722  0.73574741  0.20690828    -0.76400
Al383      Al  0.61511119  0.72377220  0.23650478     1.90100
O384        O  0.55864529  0.69238053  0.26746632    -0.75500
O385        O  0.57268270  0.76348880  0.28260187    -0.75400
O386        O  0.56639962  0.72151428  0.34227085    -0.81000
O387        O  0.61520738  0.78804386  0.28191341    -0.79200
O388        O  0.60296776  0.73965611  0.27395406    -1.15400
O389        O  0.65322924  0.77949894  0.26187717    -0.74600
C390        C  0.65343244  0.77405122  0.21703499     0.96200
C391        C  0.57155176  0.68113186  0.27786631     0.92600
Al392      Al  0.56905967  0.72895743  0.27471101     1.55600
O393        O  0.64641947  0.73217135  0.27577814    -0.79200
C394        C  0.59298872  0.78545768  0.27638932     0.96700
C395        C  0.57850276  0.72696951  0.17519497     0.91600
O396        O  0.58822795  0.71311924  0.18779039    -0.84500
O397        O  0.54833068  0.58126734  0.12462640    -0.84000
C398        C  0.51340322  0.59920430  0.44847944     0.95400
O399        O  0.51171655  0.57766181  0.45907469    -0.73100
O400        O  0.55933374  0.59044616  0.48110713    -0.76700
Al401      Al  0.52694450  0.56952841  0.01318266     1.49000
C402        C  0.57952156  0.59510842  0.00397348     0.90700
O403        O  0.57106365  0.64265166  0.05091323    -0.82900
O404        O  0.50164075  0.59941406  0.11642625    -0.76400
Al405      Al  0.55915707  0.61157889  0.08680287     1.90100
O406        O  0.53392571  0.64280956  0.05586425    -0.75500
O407        O  0.47699796  0.57162822  0.04080603    -0.75400
O408        O  0.51260168  0.61365857  0.48106268    -0.81000
O409        O  0.49508063  0.54719411  0.04140658    -0.79200
O410        O  0.53112409  0.59562291  0.04936264    -1.15400
O411        O  0.54166664  0.55589433  0.06139759    -0.74600
C412        C  0.54727570  0.56132714  0.10625403     0.96200
C413        C  0.55809226  0.65413561  0.04545386     0.92600
Al414      Al  0.50783753  0.60620814  0.04863058     1.55600
O415        O  0.58213001  0.60327053  0.04751049    -0.79200
C416        C  0.47542547  0.54971400  0.04709984     0.96700
C417        C  0.51928954  0.60824069  0.14813927     0.91600
O418        O  0.54287060  0.62214726  0.13554427    -0.84500
O419        O  0.54833066  0.58126591  0.37462259    -0.84000
C420        C  0.51340241  0.59920072  0.19847775     0.95400
O421        O  0.51171921  0.57765922  0.20906785    -0.73100
O422        O  0.55933481  0.59044282  0.23111017    -0.76700
Al423      Al  0.52694206  0.56952520  0.26318255     1.49000
C424        C  0.57951942  0.59510564  0.25396758     0.90700
O425        O  0.57106365  0.64265005  0.30091090    -0.82900
O426        O  0.50164149  0.59941348  0.36642621    -0.76400
Al427      Al  0.55915701  0.61157709  0.33679946     1.90100
O428        O  0.53392568  0.64280773  0.30586401    -0.75500
O429        O  0.47699745  0.57162755  0.29080493    -0.75400
O430        O  0.51259751  0.61365163  0.23106399    -0.81000
O431        O  0.49507904  0.54719241  0.29141059    -0.79200
O432        O  0.53112344  0.59562102  0.29936106    -1.15400
O433        O  0.54166559  0.55589207  0.31139483    -0.74600
C434        C  0.54727515  0.56132548  0.35625068     0.96200
C435        C  0.55809226  0.65413411  0.29545441     0.92600
Al436      Al  0.50783744  0.60620678  0.29863001     1.55600
O437        O  0.58212873  0.60326850  0.29750425    -0.79200
C438        C  0.47542395  0.54971298  0.29709911     0.96700
C439        C  0.51929055  0.60824094  0.39813892     0.91600
O440        O  0.54287175  0.62214582  0.38554319    -0.84500
O441        O  0.69649800  0.78504587  0.20745001    -0.84000
C442        C  0.74944632  0.82001419  0.03137902     0.95400
O443        O  0.72961837  0.82175106  0.04197923    -0.73100
O444        O  0.69473353  0.77413612  0.06393948    -0.76700
Al445      Al  0.70622977  0.80650647  0.09606570     1.49000
C446        C  0.67919743  0.75393941  0.08676326     0.90700
O447        O  0.73521098  0.76231365  0.13385539    -0.82900
O448        O  0.76143122  0.83174568  0.19932002    -0.76400
Al449      Al  0.71601567  0.77424112  0.16965804     1.90100
O450        O  0.77253138  0.79944535  0.13875416    -0.75500
O451        O  0.75830700  0.85644068  0.12376224    -0.75400
O452        O  0.76469786  0.82079932  0.06396148    -0.81000
O453        O  0.71577889  0.83836763  0.12436446    -0.79200
O454        O  0.72813008  0.80228646  0.13224385    -1.15400
O455        O  0.67783351  0.79176080  0.14421988    -0.74600
C456        C  0.67762576  0.78612677  0.18906681     0.96200
C457        C  0.75969038  0.77525391  0.12852653     0.92600
Al458      Al  0.76202249  0.82555940  0.13153241     1.55600
O459        O  0.68474712  0.75129557  0.13028367    -0.79200
C460        C  0.73796547  0.85802634  0.13007730     0.96700
C461        C  0.75256785  0.81410316  0.23104096     0.91600
O462        O  0.74284866  0.79051799  0.21846693    -0.84500
O463        O  0.69649950  0.78505696  0.45745152    -0.84000
C464        C  0.74944426  0.82001736  0.28137777     0.95400
O465        O  0.72961708  0.82175558  0.29197753    -0.73100
O466        O  0.69473203  0.77414119  0.31394228    -0.76700
Al467      Al  0.70622915  0.80651249  0.34606498     1.49000
C468        C  0.67919584  0.75394548  0.33676864     0.90700
O469        O  0.73521021  0.76231988  0.38386045    -0.82900
O470        O  0.76143262  0.83175410  0.44931886    -0.76400
Al471      Al  0.71601569  0.77424944  0.41966160     1.90100
O472        O  0.77253099  0.79945157  0.38875383    -0.75500
O473        O  0.75830652  0.85644676  0.37376114    -0.75400
O474        O  0.76469662  0.82080422  0.31396024    -0.81000
O475        O  0.71577837  0.83837349  0.37436160    -0.79200
O476        O  0.72812993  0.80229334  0.38224419    -1.15400
O477        O  0.67783375  0.79176880  0.39421968    -0.74600
C478        C  0.67762699  0.78613712  0.43906753     0.96200
C479        C  0.75968959  0.77525969  0.37852928     0.92600
Al480      Al  0.76202235  0.82556592  0.38153121     1.55600
O481        O  0.68474603  0.75130305  0.38028963    -0.79200
C482        C  0.73796471  0.85803157  0.38007899     0.96700
C483        C  0.75256982  0.81411252  0.48104155     0.91600
O484        O  0.74284945  0.79052699  0.46846931    -0.84500
O485        O  0.78312528  0.69859125  0.03242098    -0.84000
C486        C  0.81804057  0.75151826  0.20846969     0.95400
O487        O  0.81978570  0.73169740  0.19787865    -0.73100
O488        O  0.77216169  0.69682064  0.17593034    -0.76700
Al489      Al  0.80453501  0.70830699  0.14381460     1.49000
C490        C  0.75197357  0.68126658  0.15310596     0.90700
O491        O  0.76031504  0.73724167  0.10596770    -0.82900
O492        O  0.82976681  0.76349792  0.04052406    -0.76400
Al493      Al  0.77227241  0.71807046  0.07018580     1.90100
O494        O  0.79744151  0.77457281  0.10109207    -0.75500
O495        O  0.85444856  0.76036779  0.11607052    -0.75400
O496        O  0.81881407  0.76676022  0.17588084    -0.81000
O497        O  0.83638089  0.71784280  0.11551840    -0.79200
O498        O  0.80031160  0.73019742  0.10761451    -1.15400
O499        O  0.78980653  0.67991981  0.09567988    -0.74600
C500        C  0.78421115  0.67972791  0.05081805     0.96200
C501        C  0.77324428  0.76171820  0.11130463     0.92600
Al502      Al  0.82357326  0.76408423  0.10831124     1.55600
O503        O  0.74933386  0.68679540  0.10956519    -0.79200
C504        C  0.85602882  0.74002565  0.10976049     0.96700
C505        C  0.81212481  0.75463444  0.00880333     0.91600
O506        O  0.78853636  0.74490394  0.02137831    -0.84500
O507        O  0.78312256  0.69859518  0.28242052    -0.84000
C508        C  0.81803902  0.75152008  0.45847040     0.95400
O509        O  0.81978687  0.73170106  0.44787651    -0.73100
O510        O  0.77216265  0.69682365  0.42593137    -0.76700
Al511      Al  0.80453537  0.70831109  0.39381194     1.49000
C512        C  0.75197330  0.68127076  0.40310862     0.90700
O513        O  0.76031403  0.73724679  0.35597070    -0.82900
O514        O  0.82976555  0.76350312  0.29052392    -0.76400
Al515      Al  0.77227099  0.71807501  0.32018740     1.90100
O516        O  0.79744052  0.77457756  0.35109486    -0.75500
O517        O  0.85444876  0.76037269  0.36606933    -0.75400
O518        O  0.81881242  0.76676292  0.42588322    -0.81000
O519        O  0.83638111  0.71784787  0.36551178    -0.79200
O520        O  0.80031077  0.73020170  0.35761436    -1.15400
O521        O  0.78980597  0.67992409  0.34567721    -0.74600
C522        C  0.78420956  0.67973213  0.30081606     0.96200
C523        C  0.77324332  0.76172335  0.36130756     0.92600
Al524      Al  0.82357231  0.76408860  0.35831223     1.55600
O525        O  0.74933294  0.68680021  0.35956850    -0.79200
C526        C  0.85602926  0.74003081  0.35975544     0.96700
C527        C  0.81212339  0.75463875  0.25880319     0.91600
O528        O  0.78853494  0.74490831  0.27137875    -0.84500
O529        O  0.90851691  0.69770855  0.16848104    -0.84000
C530        C  0.92960950  0.75246827  0.99891367     0.95400
O531        O  0.90732669  0.73402294  0.00963752    -0.73100
O532        O  0.91982704  0.69753372  0.02529368    -0.76700
Al533      Al  0.89931953  0.70902369  0.05966948     1.49000
C534        C  0.92400095  0.68118819  0.04674432     0.90700
O535        O  0.97315522  0.73648649  0.10734689    -0.82900
O536        O  0.92879640  0.76248674  0.16636255    -0.76400
Al537      Al  0.93984129  0.71639048  0.13532700     1.90100
O538        O  0.97264746  0.77345221  0.11315182    -0.75500
O539        O  0.90210546  0.76040029  0.08874675    -0.75400
O540        O  0.94536907  0.76662813  0.03155959    -0.81000
O541        O  0.87742758  0.71792338  0.09067361    -0.79200
O542        O  0.92562812  0.72990511  0.09756977    -1.15400
O543        O  0.88511422  0.67972368  0.10317966    -0.74600
C544        C  0.88917024  0.67943075  0.14831726     0.96200
C545        C  0.98493985  0.76094510  0.11402898     0.92600
Al546      Al  0.93666875  0.76367455  0.09921963     1.55600
O547        O  0.93189204  0.68587553  0.09104933    -0.79200
C548        C  0.88008569  0.74009925  0.09607189     0.96700
C549        C  0.93747403  0.75374511  0.19864728     0.91600
O550        O  0.94906041  0.74147980  0.18733133    -0.84500
O551        O  0.90850932  0.69771136  0.41848451    -0.84000
C552        C  0.92961261  0.75246917  0.24891196     0.95400
O553        O  0.90732971  0.73402333  0.25963308    -0.73100
O554        O  0.91982531  0.69753131  0.27529902    -0.76700
Al555      Al  0.89931859  0.70902513  0.30966781     1.49000
C556        C  0.92399690  0.68118512  0.29675359     0.90700
O557        O  0.97315114  0.73648030  0.35735476    -0.82900
O558        O  0.92879716  0.76248991  0.41636115    -0.76400
Al559      Al  0.93983579  0.71638894  0.38533336     1.90100
O560        O  0.97264826  0.77344903  0.36315002    -0.75500
O561        O  0.90210748  0.76040454  0.33874489    -0.75400
O562        O  0.94537116  0.76662841  0.28155939    -0.81000
O563        O  0.87742701  0.71792792  0.34066411    -0.79200
O564        O  0.92562650  0.72990557  0.34757060    -1.15400
O565        O  0.88510908  0.67972634  0.35318055    -0.74600
C566        C  0.88916266  0.67943399  0.39831940     0.96200
C567        C  0.98493866  0.76093972  0.36402721     0.92600
Al568      Al  0.93667003  0.76367558  0.34921862     1.55600
O569        O  0.93188446  0.68587193  0.34106059    -0.79200
C570        C  0.88008645  0.74010414  0.34606574     0.96700
C571        C  0.93747213  0.75374700  0.44864816     0.91600
O572        O  0.94905738  0.74148031  0.43733459    -0.84500
O573        O  0.08945312  0.78861098  0.07118367    -0.84000
C574        C  0.06815005  0.82206313  0.24064967     0.95400
O575        O  0.09045325  0.82597833  0.22993943    -0.73100
O576        O  0.07800617  0.77696932  0.21437771    -0.76700
Al577      Al  0.09849856  0.80899222  0.17999550     1.49000
C578        C  0.07387542  0.75645601  0.19294050     0.90700
O579        O  0.02476628  0.76241787  0.13216050    -0.82900
O580        O  0.06893657  0.83286419  0.07319490    -0.76400
Al581      Al  0.05808572  0.77578914  0.10424340     1.90100
O582        O  0.02510234  0.79981405  0.12640871    -0.75500
O583        O  0.09566392  0.85755020  0.15077665    -0.75400
O584        O  0.05237610  0.82040668  0.20799382    -0.81000
O585        O  0.12036223  0.83978441  0.14900115    -0.79200
O586        O  0.07219607  0.80350550  0.14203120    -1.15400
O587        O  0.11276210  0.79393742  0.13657139    -0.74600
C588        C  0.10875167  0.78962564  0.09141649     0.96200
C589        C  0.01289727  0.77499615  0.12549775     0.92600
Al590      Al  0.06108119  0.82616214  0.14033324     1.55600
O591        O  0.06608258  0.75327406  0.14856862    -0.79200
C592        C  0.11771363  0.85930342  0.14360705     0.96700
C593        C  0.06029188  0.81544486  0.04090999     0.91600
O594        O  0.04879288  0.79158819  0.05222155    -0.84500
O595        O  0.08946220  0.78861272  0.32118430    -0.84000
C596        C  0.06814108  0.82205415  0.49064926     0.95400
O597        O  0.09044421  0.82596711  0.47994596    -0.73100
O598        O  0.07799916  0.77695985  0.46437298    -0.76700
Al599      Al  0.09849512  0.80898573  0.43000183     1.49000
C600        C  0.07387227  0.75644881  0.44293207     0.90700
O601        O  0.02476728  0.76241139  0.38213844    -0.82900
O602        O  0.06894130  0.83286262  0.32319433    -0.76400
Al603      Al  0.05809066  0.77578689  0.35423316     1.90100
O604        O  0.02510299  0.79980781  0.37639677    -0.75500
O605        O  0.09566121  0.85754491  0.40078177    -0.75400
O606        O  0.05236975  0.82039813  0.45798821    -0.81000
O607        O  0.12036156  0.83978127  0.39901873    -0.79200
O608        O  0.07219624  0.80350070  0.39202876    -1.15400
O609        O  0.11276453  0.79393511  0.38657983    -0.74600
C610        C  0.10875910  0.78962657  0.34142302     0.96200
C611        C  0.01289783  0.77498997  0.37548348     0.92600
Al612      Al  0.06108032  0.82615643  0.39032964     1.55600
O613        O  0.06608435  0.75326977  0.39855740    -0.79200
C614        C  0.11771185  0.85929946  0.39361864     0.96700
C615        C  0.06030055  0.81544569  0.29090544     0.91600
O616        O  0.04880178  0.79158832  0.30221109    -0.84500
O617        O  0.96858518  0.54692749  0.25254047    -0.84000
C618        C  0.91387136  0.51333448  0.08291412     0.95400
O619        O  0.93234498  0.50955289  0.09360642    -0.73100
O620        O  0.96877598  0.55857280  0.10934619    -0.76700
Al621      Al  0.95733499  0.52655795  0.14363525     1.49000
C622        C  0.98516191  0.57907013  0.13082141     0.90700
O623        O  0.92996533  0.57287797  0.19130727    -0.82900
O624        O  0.90385058  0.50248783  0.25037869    -0.76400
Al625      Al  0.94997201  0.55963588  0.21938059     1.90100
O626        O  0.89293460  0.53541717  0.19708917    -0.75500
O627        O  0.90599127  0.47789306  0.17277853    -0.75400
O628        O  0.89970901  0.51490098  0.11557724    -0.81000
O629        O  0.94848471  0.49578084  0.17452749    -0.79200
O630        O  0.93644608  0.53192145  0.18158345    -1.15400
O631        O  0.98662207  0.54164853  0.18717593    -0.74600
C632        C  0.98688731  0.54592617  0.23234357     0.96200
C633        C  0.90550111  0.56023403  0.19787704     0.92600
Al634      Al  0.90267890  0.50917348  0.18323022     1.55600
O635        O  0.98052448  0.58223109  0.17517914    -0.79200
C636        C  0.92633161  0.47622376  0.17991657     0.96700
C637        C  0.91257170  0.51991245  0.28265549     0.91600
O638        O  0.92482969  0.54376826  0.27132219    -0.84500
O639        O  0.96858870  0.54692698  0.00254386    -0.84000
C640        C  0.91386937  0.51334060  0.33291384     0.95400
O641        O  0.93234305  0.50955969  0.34360927    -0.73100
O642        O  0.96877200  0.55858056  0.35934764    -0.76700
Al643      Al  0.95733256  0.52656624  0.39363835     1.49000
C644        C  0.98515791  0.57907840  0.38082145     0.90700
O645        O  0.92996113  0.57288523  0.44131113    -0.82900
O646        O  0.90385284  0.50248822  0.00037781    -0.76400
Al647      Al  0.94996876  0.55964391  0.46938313     1.90100
O648        O  0.89293093  0.53542390  0.44708922    -0.75500
O649        O  0.90598959  0.47790079  0.42277849    -0.75400
O650        O  0.89970739  0.51490912  0.36557551    -0.81000
O651        O  0.94848300  0.49578918  0.42453349    -0.79200
O652        O  0.93644329  0.53192947  0.43158556    -1.15400
O653        O  0.98661985  0.54165822  0.43717773    -0.74600
C654        C  0.98688539  0.54593538  0.48234547     0.96200
C655        C  0.90549683  0.56024064  0.44787872     0.92600
Al656      Al  0.90267621  0.50918103  0.43322974     1.55600
O657        O  0.98052068  0.58223997  0.42517933    -0.79200
C658        C  0.92632986  0.47623164  0.42992068     0.96700
C659        C  0.91257429  0.51991033  0.03265873     0.91600
O660        O  0.92483233  0.54376690  0.02133165    -0.84500
O661        O  0.87830518  0.63735447  0.15435012    -0.84000
C662        C  0.84467581  0.58265113  0.32404850     0.95400
O663        O  0.84091649  0.60113864  0.31335265    -0.73100
O664        O  0.88992205  0.63758989  0.29755012    -0.76700
Al665      Al  0.85789525  0.62610974  0.26327232     1.49000
C666        C  0.91041309  0.65397668  0.27605386     0.90700
O667        O  0.90419964  0.59869420  0.21567334    -0.82900
O668        O  0.83381328  0.57261871  0.15658831    -0.76400
Al669      Al  0.89098215  0.61872549  0.18756344     1.90100
O670        O  0.86672160  0.56168434  0.20987023    -0.75500
O671        O  0.80923480  0.57474254  0.23423143    -0.75400
O672        O  0.84623704  0.56848415  0.29139069    -0.81000
O673        O  0.82710514  0.61722719  0.23239963    -0.79200
O674        O  0.86326085  0.60521407  0.22535938    -1.15400
O675        O  0.87296437  0.65537582  0.21967192    -0.74600
C676        C  0.87726652  0.65564282  0.17451307     0.96200
C677        C  0.89153668  0.57422952  0.20909714     0.92600
Al678      Al  0.84050396  0.57144481  0.22374104     1.55600
O679        O  0.91358565  0.64930107  0.23172665    -0.79200
C680        C  0.80755520  0.59506696  0.22705397     0.96700
C681        C  0.85124291  0.58133761  0.12431082     0.91600
O682        O  0.87510143  0.59357553  0.13564591    -0.84500
O683        O  0.87829420  0.63735694  0.40435086    -0.84000
C684        C  0.84468111  0.58265102  0.07405121     0.95400
O685        O  0.84092277  0.60113977  0.06336035    -0.73100
O686        O  0.88992562  0.63759296  0.04754616    -0.76700
Al687      Al  0.85789579  0.62610970  0.01327619     1.49000
C688        C  0.91041518  0.65397958  0.02604573     0.90700
O689        O  0.90419391  0.59870034  0.46567054    -0.82900
O690        O  0.83380681  0.57262267  0.40658696    -0.76400
Al691      Al  0.89097446  0.61872990  0.43756139     1.90100
O692        O  0.86671647  0.56168946  0.45986909    -0.75500
O693        O  0.80922909  0.57474559  0.48423171    -0.75400
O694        O  0.84623843  0.56848325  0.04139055    -0.81000
O695        O  0.82709861  0.61723033  0.48240978    -0.79200
O696        O  0.86325428  0.60521789  0.47536005    -1.15400
O697        O  0.87295657  0.65537929  0.46967475    -0.74600
C698        C  0.87725727  0.65564599  0.42451513     0.96200
C699        C  0.89153161  0.57423549  0.45909641     0.92600
Al700      Al  0.84049799  0.57144860  0.47374025     1.55600
O701        O  0.91357829  0.64930563  0.48172091    -0.79200
C702        C  0.80754959  0.59507019  0.47705770     0.96700
C703        C  0.85123661  0.58134038  0.37430971     0.91600
O704        O  0.87509482  0.59357963  0.38564527    -0.84500
O705        O  0.11943402  0.75829613  0.08556356    -0.84000
C706        C  0.15293731  0.73698384  0.41610739     0.95400
O707        O  0.15686680  0.75928828  0.42681201    -0.73100
O708        O  0.10787745  0.74684938  0.44238146    -0.76700
Al709      Al  0.13988496  0.76733960  0.47674533     1.49000
C710        C  0.08738732  0.74279690  0.46379587     0.90700
O711        O  0.09329128  0.69357574  0.02462774    -0.82900
O712        O  0.16373634  0.73779034  0.08355994    -0.76400
Al713      Al  0.10664543  0.72692847  0.05250365     1.90100
O714        O  0.13072498  0.69397905  0.03037506    -0.75500
O715        O  0.18840679  0.76448421  0.00594024    -0.75400
O716        O  0.15127475  0.72121071  0.44876988    -0.81000
O717        O  0.17065601  0.78919397  0.00771749    -0.79200
O718        O  0.13437831  0.74104233  0.01473113    -1.15400
O719        O  0.12485913  0.78162457  0.02015342    -0.74600
C720        C  0.12056813  0.77764787  0.06531634     0.96200
C721        C  0.10591068  0.68173934  0.03127892     0.92600
Al722      Al  0.15703667  0.72992946  0.01642600     1.55600
O723        O  0.08414498  0.73495517  0.00814650    -0.79200
C724        C  0.19016399  0.78652973  0.01309930     0.96700
C725        C  0.14631359  0.72914366  0.11584859     0.91600
O726        O  0.12245163  0.71765417  0.10454663    -0.84500
O727        O  0.11944493  0.75829910  0.33557033    -0.84000
C728        C  0.15293454  0.73698367  0.16610570     0.95400
O729        O  0.15686754  0.75928889  0.17681317    -0.73100
O730        O  0.10787955  0.74685443  0.19238606    -0.76700
Al731      Al  0.13988828  0.76734102  0.22674885     1.49000
C732        C  0.08739032  0.74280318  0.21380277     0.90700
O733        O  0.09329493  0.69357948  0.27462705    -0.82900
O734        O  0.16374137  0.73778663  0.33356252    -0.76400
Al735      Al  0.10665264  0.72693144  0.30250693     1.90100
O736        O  0.13072604  0.69397732  0.28037389    -0.75500
O737        O  0.18841469  0.76447995  0.25594234    -0.75400
O738        O  0.15127203  0.72120942  0.19876586    -0.81000
O739        O  0.17066644  0.78919181  0.25772312    -0.79200
O740        O  0.13438539  0.74104309  0.26473396    -1.15400
O741        O  0.12487176  0.78162910  0.27016208    -0.74600
C742        C  0.12057911  0.77765121  0.31532463     0.96200
C743        C  0.10591169  0.68174039  0.28127685     0.92600
Al744      Al  0.15704121  0.72992670  0.26642693     1.55600
O745        O  0.08415431  0.73496204  0.25815253    -0.79200
C746        C  0.19017378  0.78652625  0.26310212     0.96700
C747        C  0.14631806  0.72914194  0.36585045     0.91600
O748        O  0.12245646  0.71765278  0.35454679    -0.84500
O749        O  0.02892827  0.57723090  0.48830970    -0.84000
C750        C  0.08371781  0.59852701  0.15782825     0.95400
O751        O  0.06532905  0.57621640  0.14711444    -0.73100
O752        O  0.02875031  0.58859843  0.13147660    -0.76700
Al753      Al  0.04030121  0.56813947  0.09712046     1.49000
C754        C  0.01234649  0.59269011  0.11003582     0.90700
O755        O  0.06747727  0.64190683  0.04933673    -0.82900
O756        O  0.09374117  0.59775455  0.49037787    -0.76400
Al757      Al  0.04750466  0.60857321  0.02140106     1.90100
O758        O  0.10453477  0.64156264  0.04359757    -0.75500
O759        O  0.09174125  0.57106872  0.06795944    -0.75400
O760        O  0.09784001  0.61430547  0.12517322    -0.81000
O761        O  0.04926851  0.54629832  0.06613339    -0.79200
O762        O  0.06111549  0.59446096  0.05917993    -1.15400
O763        O  0.01098687  0.55384962  0.05365359    -0.74600
C764        C  0.01068360  0.55786737  0.00850217     0.96200
C765        C  0.09194063  0.65377427  0.04269947     0.92600
Al766      Al  0.09490310  0.60560776  0.05751203     1.55600
O767        O  0.01697209  0.60053021  0.06569653    -0.79200
C768        C  0.07146625  0.54900843  0.06071632     0.96700
C769        C  0.08495344  0.60638223  0.45809041     0.91600
O770        O  0.07260690  0.61788601  0.46940059    -0.84500
O771        O  0.02892996  0.57722301  0.23830447    -0.84000
C772        C  0.08371214  0.59853034  0.40783189     0.95400
O773        O  0.06532133  0.57622055  0.39712055    -0.73100
O774        O  0.02874608  0.58860606  0.38147727    -0.76700
Al775      Al  0.04029461  0.56814363  0.34712577     1.49000
C776        C  0.01234256  0.59269757  0.36003502     0.90700
O777        O  0.06747507  0.64191012  0.29933100    -0.82900
O778        O  0.09374280  0.59775273  0.24037794    -0.76400
Al779      Al  0.04750077  0.60857568  0.27139951     1.90100
O780        O  0.10453099  0.64156228  0.29359791    -0.75500
O781        O  0.09173263  0.57106833  0.31796476    -0.75400
O782        O  0.09783472  0.61430720  0.37517542    -0.81000
O783        O  0.04925975  0.54629898  0.31614324    -0.79200
O784        O  0.06111005  0.59446319  0.30918202    -1.15400
O785        O  0.01098114  0.55385397  0.30365877    -0.74600
C786        C  0.01067920  0.55786929  0.25850616     0.96200
C787        C  0.09193863  0.65377553  0.29269644     0.92600
Al788      Al  0.09489707  0.60560777  0.30751505     1.55600
O789        O  0.01696820  0.60053574  0.31569437    -0.79200
C790        C  0.07145705  0.54900861  0.31072117     0.96700
C791        C  0.08495545  0.60637852  0.20808637     0.91600
O792        O  0.07260680  0.61788072  0.21939124    -0.84500
O793        O  0.78620911  0.09147418  0.16858241    -0.84000
C794        C  0.81974846  0.07021437  0.99914351     0.95400
O795        O  0.82368439  0.09252176  0.00986162    -0.73100
O796        O  0.77468257  0.08008901  0.02540081    -0.76700
Al797      Al  0.80669349  0.10056632  0.05980485     1.49000
C798        C  0.75416651  0.07596897  0.04681616     0.90700
O799        O  0.76009322  0.02676338  0.10763583    -0.82900
O800        O  0.83053971  0.07099791  0.16659465    -0.76400
Al801      Al  0.77344369  0.06011527  0.13551634     1.90100
O802        O  0.79751610  0.02715545  0.11340044    -0.75500
O803        O  0.85524089  0.09772134  0.08901785    -0.75400
O804        O  0.81808852  0.05443812  0.03179707    -0.81000
O805        O  0.83749595  0.12243399  0.09082967    -0.79200
O806        O  0.80118396  0.07425055  0.09776122    -1.15400
O807        O  0.79163487  0.11482596  0.10321191    -0.74600
C808        C  0.78730065  0.11081029  0.14835742     0.96200
C809        C  0.77269649  0.01491433  0.11430482     0.92600
Al810      Al  0.82384678  0.06314142  0.09946227     1.55600
O811        O  0.75093961  0.06811549  0.09115326    -0.79200
C812        C  0.85701110  0.11977337  0.09621884     0.96700
C813        C  0.81311655  0.06235945  0.19887952     0.91600
O814        O  0.78925496  0.05085482  0.18757015    -0.84500
O815        O  0.78621530  0.09147640  0.41858887    -0.84000
C816        C  0.81973818  0.07020543  0.24913988     0.95400
O817        O  0.82367674  0.09251379  0.25985717    -0.73100
O818        O  0.77467729  0.08008367  0.27540873    -0.76700
Al819      Al  0.80669106  0.10056182  0.30980475     1.49000
C820        C  0.75416295  0.07596603  0.29682754     0.90700
O821        O  0.76008971  0.02676363  0.35764651    -0.82900
O822        O  0.83054101  0.07099348  0.41659093    -0.76400
Al823      Al  0.77344482  0.06011579  0.38552569     1.90100
O824        O  0.79751131  0.02715196  0.36339930    -0.75500
O825        O  0.85523920  0.09771545  0.33901207    -0.75400
O826        O  0.81808042  0.05443054  0.28179426    -0.81000
O827        O  0.83749638  0.12242992  0.34082224    -0.79200
O828        O  0.80118260  0.07424755  0.34776375    -1.15400
O829        O  0.79163743  0.11482494  0.35321505    -0.74600
C830        C  0.78730724  0.11081238  0.39836221     0.96200
C831        C  0.77269180  0.01491287  0.36430602     0.92600
Al832      Al  0.82384352  0.06313609  0.34945929     1.55600
O833        O  0.75093925  0.06811670  0.34116726    -0.79200
C834        C  0.85701070  0.11976808  0.34621444     0.96700
C835        C  0.81312037  0.06235828  0.44888048     0.91600
O836        O  0.78925797  0.05085447  0.43757635    -0.84500
O837        O  0.69554233  0.91039638  0.07143021    -0.84000
C838        C  0.75034446  0.93162284  0.24089229     0.95400
O839        O  0.73195056  0.90931552  0.23016974    -0.73100
O840        O  0.69537356  0.92172452  0.21461764    -0.76700
Al841      Al  0.70691514  0.90126893  0.18020106     1.49000
C842        C  0.67899722  0.92586865  0.19319647     0.90700
O843        O  0.73421994  0.97509706  0.13241476    -0.82900
O844        O  0.76036491  0.93084240  0.07344308    -0.76400
Al845      Al  0.71417186  0.94174500  0.10451974     1.90100
O846        O  0.77123723  0.97468201  0.12664237    -0.75500
O847        O  0.75832532  0.90413905  0.15101293    -0.75400
O848        O  0.76448153  0.94739756  0.20824261    -0.81000
O849        O  0.71584963  0.87941438  0.14915630    -0.79200
O850        O  0.72775225  0.92759591  0.14227042    -1.15400
O851        O  0.67759399  0.88701796  0.13677083    -0.74600
C852        C  0.67728138  0.89105228  0.09163310     0.96200
C853        C  0.75868451  0.98693480  0.12574382     0.92600
Al854      Al  0.76153597  0.93870117  0.14057727     1.55600
O855        O  0.68365417  0.93374553  0.14887364    -0.79200
C856        C  0.73803497  0.88209586  0.14373103     0.96700
C857        C  0.75158525  0.93947841  0.04115722     0.91600
O858        O  0.73925140  0.95099668  0.05246822    -0.84500
O859        O  0.69553862  0.91039002  0.32142893    -0.84000
C860        C  0.75034668  0.93163359  0.49089304     0.95400
O861        O  0.73194909  0.90932670  0.48017909    -0.73100
O862        O  0.69537244  0.92173388  0.46461190    -0.76700
Al863      Al  0.70691330  0.90127416  0.43020792     1.49000
C864        C  0.67899514  0.92587468  0.44318589     0.90700
O865        O  0.73421387  0.97509526  0.38239990    -0.82900
O866        O  0.76036031  0.93083920  0.32344188    -0.76400
Al867      Al  0.71416744  0.94174203  0.35451078     1.90100
O868        O  0.77123214  0.97468109  0.37663400    -0.75500
O869        O  0.75832392  0.90414283  0.40101718    -0.75400
O870        O  0.76448229  0.94740418  0.45823723    -0.81000
O871        O  0.71584813  0.87941666  0.39917610    -0.79200
O872        O  0.72774931  0.92759695  0.39226896    -1.15400
O873        O  0.67759092  0.88701777  0.38677635    -0.74600
C874        C  0.67727712  0.89104819  0.34163665     0.96200
C875        C  0.75867892  0.98693321  0.37573538     0.92600
Al876      Al  0.76153313  0.93870260  0.39057432     1.55600
O877        O  0.68365009  0.93374530  0.39885987    -0.79200
C878        C  0.73803348  0.88209938  0.39374102     0.96700
C879        C  0.75158036  0.93947353  0.29115367     0.91600
O880        O  0.73924695  0.95099243  0.30246135    -0.84500
O881        O  0.63520581  0.88019015  0.08571145    -0.84000
C882        C  0.58043312  0.84661170  0.41615403     0.95400
O883        O  0.59887956  0.84278941  0.42685190    -0.73100
O884        O  0.63538454  0.89180005  0.44251883    -0.76700
Al885      Al  0.62389187  0.85978536  0.47684628     1.49000
C886        C  0.65179453  0.91229519  0.46397342     0.90700
O887        O  0.59656074  0.90617746  0.02460299    -0.82900
O888        O  0.57042653  0.83576825  0.08360729    -0.76400
Al889      Al  0.61659024  0.89290878  0.05258363     1.90100
O890        O  0.55953152  0.86872235  0.03040066    -0.75500
O891        O  0.57252210  0.81114941  0.00596194    -0.75400
O892        O  0.56628976  0.84821690  0.44881609    -0.81000
O893        O  0.61500861  0.82899819  0.00776332    -0.79200
O894        O  0.60303237  0.86518818  0.01479886    -1.15400
O895        O  0.65319075  0.87484381  0.02034440    -0.74600
C896        C  0.65348039  0.87914367  0.06550177     0.96200
C897        C  0.57209746  0.89353838  0.03126709     0.92600
Al898      Al  0.56925529  0.84246312  0.01646366     1.55600
O899        O  0.64714997  0.91548174  0.00831752    -0.79200
C900        C  0.59284626  0.80944644  0.01307878     0.96700
C901        C  0.57916590  0.85319274  0.11588845     0.91600
O902        O  0.59146978  0.87705055  0.10456706    -0.84500
O903        O  0.63520040  0.88018569  0.33571689    -0.84000
C904        C  0.58043481  0.84660832  0.16614975     0.95400
O905        O  0.59887987  0.84278423  0.17684918    -0.73100
O906        O  0.63538626  0.89179255  0.19252466    -0.76700
Al907      Al  0.62388872  0.85977587  0.22684932     1.49000
C908        C  0.65179549  0.91228695  0.21398222     0.90700
O909        O  0.59655805  0.90617664  0.27460786    -0.82900
O910        O  0.57042087  0.83576762  0.33361281    -0.76400
Al911      Al  0.61658601  0.89290637  0.30258822     1.90100
O912        O  0.55952752  0.86872236  0.28040478    -0.75500
O913        O  0.57251353  0.81114682  0.25596516    -0.75400
O914        O  0.56628809  0.84820904  0.19881035    -0.81000
O915        O  0.61500004  0.82899486  0.25776338    -0.79200
O916        O  0.60302622  0.86518568  0.26480263    -1.15400
O917        O  0.65318401  0.87483878  0.27034876    -0.74600
C918        C  0.65347475  0.87913888  0.31550660     0.96200
C919        C  0.57209475  0.89353835  0.28127282     0.92600
Al920      Al  0.56924886  0.84246171  0.26646764     1.55600
O921        O  0.64714627  0.91547793  0.25832341    -0.79200
C922        C  0.59283758  0.80944318  0.26307731     0.96700
C923        C  0.57916151  0.85319311  0.36589258     0.91600
O924        O  0.59146533  0.87705035  0.35456940    -0.84500
O925        O  0.54485578  0.97066936  0.48823295    -0.84000
C926        C  0.51121953  0.91593418  0.15781094     0.95400
O927        O  0.50741123  0.93438893  0.14709824    -0.73100
O928        O  0.55643976  0.97087107  0.13140631    -0.76700
Al929      Al  0.52442039  0.95938812  0.09706741     1.49000
C930        C  0.57696133  0.98722707  0.10993508     0.90700
O931        O  0.57078319  0.93198308  0.04935084    -0.82900
O932        O  0.50037561  0.90592268  0.49036391    -0.76400
Al933      Al  0.55754055  0.95202808  0.02136020     1.90100
O934        O  0.53330841  0.89497988  0.04357026    -0.75500
O935        O  0.47577180  0.90802188  0.06798441    -0.75400
O936        O  0.51281165  0.90178076  0.12515827    -0.81000
O937        O  0.49361916  0.95050283  0.06611096    -0.79200
O938        O  0.52981688  0.93850487  0.05914922    -1.15400
O939        O  0.53953082  0.98868622  0.05354957    -0.74600
C940        C  0.54385289  0.98896548  0.00840154     0.96200
C941        C  0.55812701  0.90752503  0.04269557     0.92600
Al942      Al  0.50707009  0.90473701  0.05750078     1.55600
O943        O  0.58013558  0.98255660  0.06560469    -0.79200
C944        C  0.47407003  0.92833477  0.06075755     0.96700
C945        C  0.51779966  0.91465746  0.45807748     0.91600
O946        O  0.54166016  0.92692478  0.46939479    -0.84500
O947        O  0.54485816  0.97066434  0.23822911    -0.84000
C948        C  0.51121887  0.91593844  0.40781485     0.95400
O949        O  0.50741052  0.93439294  0.39710091    -0.73100
O950        O  0.55644018  0.97087490  0.38141303    -0.76700
Al951      Al  0.52442109  0.95939133  0.34707058     1.49000
C952        C  0.57696297  0.98722926  0.35994243     0.90700
O953        O  0.57078241  0.93198336  0.29936149    -0.82900
O954        O  0.50037505  0.90591690  0.24036079    -0.76400
Al955      Al  0.55754122  0.95202850  0.27136738     1.90100
O956        O  0.53330695  0.89498093  0.29357922    -0.75500
O957        O  0.47577193  0.90802563  0.31798519    -0.75400
O958        O  0.51280981  0.90178368  0.37516370    -0.81000
O959        O  0.49362076  0.95050667  0.31611095    -0.79200
O960        O  0.52981719  0.93850676  0.30915463    -1.15400
O961        O  0.53953255  0.98868797  0.30355191    -0.74600
C962        C  0.54385334  0.98896500  0.25840393     0.96200
C963        C  0.55812550  0.90752550  0.29270476     0.92600
Al964      Al  0.50706947  0.90473919  0.30750579     1.55600
O965        O  0.58013665  0.98255767  0.31561218    -0.79200
C966        C  0.47407144  0.92833903  0.31075555     0.96700
C967        C  0.51779938  0.91465180  0.20807437     0.91600
O968        O  0.54165977  0.92691830  0.21939250    -0.84500
O969        O  0.57516400  0.03101310  0.25238416    -0.84000
C970        C  0.59628497  0.08574121  0.08275771     0.95400
O971        O  0.57400689  0.06728271  0.09345742    -0.73100
O972        O  0.58651838  0.03082026  0.10919152    -0.76700
Al973      Al  0.56599107  0.04229664  0.14350779     1.49000
C974        C  0.59061585  0.01443034  0.13065648     0.90700
O975        O  0.63978456  0.06970862  0.19113235    -0.82900
O976        O  0.59547725  0.09576774  0.25021924    -0.76400
Al977      Al  0.60648859  0.04965645  0.21919522     1.90100
O978        O  0.63933073  0.10670695  0.19692674    -0.75500
O979        O  0.56875417  0.09365207  0.17264211    -0.75400
O980        O  0.61202606  0.09990593  0.11541615    -0.81000
O981        O  0.54408289  0.05117187  0.17443655    -0.79200
O982        O  0.59228551  0.06317760  0.18142806    -1.15400
O983        O  0.55177170  0.01302499  0.18706040    -0.74600
C984        C  0.55580284  0.01274944  0.23221474     0.96200
C985        C  0.65160562  0.09417652  0.19769858     0.92600
Al986      Al  0.60333380  0.09694484  0.18307301     1.55600
O987        O  0.59848777  0.01909915  0.17497477    -0.79200
C988        C  0.54672942  0.07333510  0.17986995     0.96700
C989        C  0.60416657  0.08703559  0.28249489     0.91600
O990        O  0.61576401  0.07478356  0.27115895    -0.84500
O991        O  0.57516372  0.03101543  0.00238722    -0.84000
C992        C  0.59629446  0.08574388  0.33275760     0.95400
O993        O  0.57401605  0.06728834  0.34346322    -0.73100
O994        O  0.58652686  0.03082475  0.35919852    -0.76700
Al995      Al  0.56600109  0.04230297  0.39351425     1.49000
C996        C  0.59062129  0.01443300  0.38066454     0.90700
O997        O  0.63979434  0.06971080  0.44114967    -0.82900
O998        O  0.59547634  0.09577207  0.00022248    -0.76400
Al999      Al  0.60649574  0.04966020  0.46920580     1.90100
O1000       O  0.63934252  0.10671064  0.44692957    -0.75500
O1001       O  0.56876851  0.09366009  0.42264315    -0.75400
O1002       O  0.61203874  0.09990806  0.36541334    -0.81000
O1003       O  0.54409604  0.05118013  0.42444551    -0.79200
O1004       O  0.59229632  0.06318317  0.43143392    -1.15400
O1005       O  0.55177969  0.01303164  0.43706517    -0.74600
C1006       C  0.55580768  0.01275608  0.48222041     0.96200
C1007       C  0.65161619  0.09417928  0.44771024     0.92600
Al1008     Al  0.60334719  0.09695095  0.43307338     1.55600
O1009       O  0.59849340  0.01910162  0.42498358    -0.79200
C1010       C  0.54674422  0.07334386  0.42987966     0.96700
C1011       C  0.60416220  0.08703705  0.03249854     0.91600
O1012       O  0.61576216  0.07478727  0.02116442    -0.84500
O1013       O  0.75609174  0.12166523  0.15426842    -0.84000
C1014       C  0.73489081  0.15518862  0.32384883     0.95400
O1015       O  0.75717488  0.15904381  0.31314952    -0.73100
O1016       O  0.74467915  0.11005354  0.29746537    -0.76700
Al1017     Al  0.76520182  0.14207560  0.26313814     1.49000
C1018       C  0.74057728  0.08955825  0.27601262     0.90700
O1019       O  0.69144898  0.09559901  0.21544003    -0.82900
O1020       O  0.73569780  0.16602030  0.15638474    -0.76400
Al1021     Al  0.72474730  0.10891017  0.18741284     1.90100
O1022       O  0.69184240  0.13302383  0.20966078    -0.75500
O1023       O  0.76243278  0.19067088  0.23398025    -0.75400
O1024       O  0.71914112  0.15358221  0.29118813    -0.81000
O1025       O  0.78710051  0.17287211  0.23221217    -0.79200
O1026       O  0.73891257  0.13663437  0.22519283    -1.15400
O1027       O  0.77943874  0.12703236  0.21963238    -0.74600
C1028       C  0.77542032  0.12272386  0.17447652     0.96200
C1029       C  0.67959845  0.10820567  0.20887459     0.92600
Al1030     Al  0.72784094  0.15932676  0.22353008     1.55600
O1031       O  0.73274992  0.08636718  0.23166411    -0.79200
C1032       C  0.78447251  0.19240237  0.22684370     0.96700
C1033       C  0.72702073  0.14859665  0.12410669     0.91600
O1034       O  0.71545462  0.12473966  0.13543771    -0.84500
O1035       O  0.75610104  0.12167036  0.40427542    -0.84000
C1036       C  0.73489045  0.15519165  0.07384749     0.95400
O1037       O  0.75717456  0.15904520  0.06315226    -0.73100
O1038       O  0.74468374  0.11005746  0.04745960    -0.76700
Al1039     Al  0.76520497  0.14208125  0.01313685     1.49000
C1040       C  0.74058188  0.08956284  0.02600429     0.90700
O1041       O  0.69146043  0.09560389  0.46545494    -0.82900
O1042       O  0.73570523  0.16602239  0.40638437    -0.76400
Al1043     Al  0.72475761  0.10891502  0.43742291     1.90100
O1044       O  0.69185228  0.13302765  0.45966683    -0.75500
O1045       O  0.76244212  0.19067719  0.48397721    -0.75400
O1046       O  0.71914372  0.15358945  0.04118440    -0.81000
O1047       O  0.78711050  0.17287895  0.48221113    -0.79200
O1048       O  0.73892348  0.13664095  0.47519763    -1.15400
O1049       O  0.77945056  0.12703979  0.46963682    -0.74600
C1050       C  0.77542996  0.12272888  0.42448177     0.96200
C1051       C  0.67960901  0.10820936  0.45888617     0.92600
Al1052     Al  0.72785078  0.15933233  0.47353078     1.55600
O1053       O  0.73276283  0.08637544  0.48167587    -0.79200
C1054       C  0.78448208  0.19240890  0.47684377     0.96700
C1055       C  0.72702548  0.14859668  0.37411013     0.91600
O1056       O  0.71546141  0.12474044  0.38544600    -0.84500
O1057       O  0.42301741  0.45500372  0.48826618    -0.84000
C1058       C  0.40184249  0.48856795  0.15780765     0.95400
O1059       O  0.42412665  0.49242490  0.14709813    -0.73100
O1060       O  0.41162356  0.44342468  0.13145053    -0.76700
Al1061     Al  0.43214177  0.47543704  0.09709920     1.49000
C1062       C  0.40750377  0.42292374  0.10999485     0.90700
O1063       O  0.35834749  0.42898828  0.04931618    -0.82900
O1064       O  0.40266079  0.49940436  0.49035154    -0.76400
Al1065     Al  0.39167321  0.44227193  0.02137721     1.90100
O1066       O  0.35881989  0.46645024  0.04355566    -0.75500
O1067       O  0.42934376  0.52400485  0.06798498    -0.75400
O1068       O  0.38607921  0.48693999  0.12515252    -0.81000
O1069       O  0.45402400  0.50622023  0.06612300    -0.79200
O1070       O  0.40584534  0.46999258  0.05916152    -1.15400
O1071       O  0.44637539  0.46037876  0.05361193    -0.74600
C1072       C  0.44235734  0.45607642  0.00845600     0.96200
C1073       C  0.34654677  0.44164107  0.04265804     0.92600
Al1074     Al  0.39478730  0.49269667  0.05749716     1.55600
O1075       O  0.39964580  0.41972133  0.06566444    -0.79200
C1076       C  0.45136485  0.52573049  0.06071511     0.96700
C1077       C  0.39398862  0.48198246  0.45806581     0.91600
O1078       O  0.38243035  0.45812448  0.46937796    -0.84500
O1079       O  0.42301009  0.45499165  0.23826702    -0.84000
C1080       C  0.40184328  0.48857500  0.40780508     0.95400
O1081       O  0.42412646  0.49243003  0.39709298    -0.73100
O1082       O  0.41162105  0.44342770  0.38145483    -0.76700
Al1083     Al  0.43213846  0.47543794  0.34709687     1.49000
C1084       C  0.40750014  0.42292557  0.36000230     0.90700
O1085       O  0.35834162  0.42898895  0.29932522    -0.82900
O1086       O  0.40265850  0.49939664  0.24035252    -0.76400
Al1087     Al  0.39166629  0.44226926  0.27138293     1.90100
O1088       O  0.35881510  0.46645105  0.29355637    -0.75500
O1089       O  0.42934142  0.52400527  0.31797777    -0.75400
O1090       O  0.38607823  0.48694471  0.37515132    -0.81000
O1091       O  0.45402000  0.50621878  0.31611466    -0.79200
O1092       O  0.40584086  0.46999223  0.30916169    -1.15400
O1093       O  0.44636983  0.46037654  0.30361152    -0.74600
C1094       C  0.44235034  0.45607150  0.25845651     0.96200
C1095       C  0.34654128  0.44164175  0.29266213     0.92600
Al1096     Al  0.39478393  0.49269737  0.30749431     1.55600
O1097       O  0.39963919  0.41972043  0.31567372    -0.79200
C1098       C  0.45136217  0.52572986  0.31070914     0.96700
C1099       C  0.39398589  0.48197462  0.20806741     0.91600
O1100       O  0.38242531  0.45811648  0.21938019    -0.84500
O1101       O  0.24205173  0.36470847  0.08558354    -0.84000
C1102       C  0.26334373  0.41948090  0.41606811     0.95400
O1103       O  0.24103832  0.40108095  0.42677861    -0.73100
O1104       O  0.25345868  0.36452675  0.44239711    -0.76700
Al1105     Al  0.23297655  0.37605545  0.47675687     1.49000
C1106       C  0.25756587  0.34813195  0.46383143     0.90700
O1107       O  0.30672311  0.40325064  0.02453718    -0.82900
O1108       O  0.26255274  0.42949612  0.08352382    -0.76400
Al1109     Al  0.27340657  0.38327995  0.05249137     1.90100
O1110       O  0.30638184  0.44030587  0.03031550    -0.75500
O1111       O  0.23584438  0.42746400  0.00591248    -0.75400
O1112       O  0.27911693  0.43360858  0.44872324    -0.81000
O1113       O  0.21111325  0.38498987  0.00771264    -0.79200
O1114       O  0.25928710  0.39687943  0.01471042    -1.15400
O1115       O  0.21870652  0.34674627  0.02021072    -0.74600
C1116       C  0.22271999  0.34644281  0.06536347     0.96200
C1117       C  0.31858987  0.42770608  0.03120359     0.92600
Al1118     Al  0.27041253  0.43065895  0.01638553     1.55600
O1119       O  0.26538593  0.35275117  0.00819569    -0.79200
C1120       C  0.21378136  0.40716997  0.01306640     0.96700
C1121       C  0.27119874  0.42072612  0.11581123     0.91600
O1122       O  0.28270856  0.40838559  0.10450057    -0.84500
O1123       O  0.24204778  0.36470401  0.33558096    -0.84000
C1124       C  0.26334576  0.41948058  0.16606911     0.95400
O1125       O  0.24103989  0.40107985  0.17677502    -0.73100
O1126       O  0.25346231  0.36452814  0.19240011    -0.76700
Al1127     Al  0.23297543  0.37605318  0.22675290     1.49000
C1128       C  0.25756759  0.34813255  0.21383594     0.90700
O1129       O  0.30671859  0.40325083  0.27453484    -0.82900
O1130       O  0.26254552  0.42949234  0.33352305    -0.76400
Al1131     Al  0.27340201  0.38327779  0.30248853     1.90100
O1132       O  0.30637515  0.44030469  0.28031641    -0.75500
O1133       O  0.23583654  0.42745953  0.25591162    -0.75400
O1134       O  0.27911648  0.43360734  0.19872800    -0.81000
O1135       O  0.21110586  0.38498536  0.25771429    -0.79200
O1136       O  0.25928081  0.39687623  0.26470951    -1.15400
O1137       O  0.21870142  0.34674210  0.27020916    -0.74600
C1138       C  0.22271612  0.34643816  0.31536116     0.96200
C1139       C  0.31858434  0.42770606  0.28120438     0.92600
Al1140     Al  0.27040509  0.43065565  0.26638549     1.55600
O1141       O  0.26538290  0.35274995  0.25819147    -0.79200
C1142       C  0.21377353  0.40716552  0.26306542     0.96700
C1143       C  0.27119337  0.42072373  0.36580952     0.91600
O1144       O  0.28270243  0.40838246  0.35449868    -0.84500
O1145       O  0.45325175  0.42490380  0.25245382    -0.84000
C1146       C  0.48686486  0.40382364  0.08282555     0.95400
O1147       O  0.49064537  0.42607942  0.09352048    -0.73100
O1148       O  0.44162312  0.41348545  0.10925446    -0.76700
Al1149     Al  0.47364319  0.43405458  0.14355821     1.49000
C1150       C  0.42112167  0.40935002  0.13073819     0.90700
O1151       O  0.42733049  0.36031476  0.19124758    -0.82900
O1152       O  0.49771849  0.40466337  0.25028553    -0.76400
Al1153     Al  0.44055622  0.39357998  0.21929375     1.90100
O1154       O  0.46481034  0.36080866  0.19703568    -0.75500
O1155       O  0.52228456  0.43136736  0.17264928    -0.75400
O1156       O  0.48528782  0.38808708  0.11548709    -0.81000
O1157       O  0.50441570  0.45597332  0.17447129    -0.79200
O1158       O  0.46827091  0.40779047  0.18149294    -1.15400
O1159       O  0.45855900  0.44824212  0.18710701    -0.74600
C1160       C  0.45427099  0.44421675  0.23227052     0.96200
C1161       C  0.43999685  0.34852772  0.19785203     0.92600
Al1162     Al  0.49102365  0.39678958  0.18313719     1.55600
O1163       O  0.41795493  0.40151960  0.17508176    -0.79200
C1164       C  0.52395564  0.45336408  0.17987124     0.96700
C1165       C  0.48029247  0.39595292  0.28256858     0.91600
O1166       O  0.45643333  0.38433654  0.27124425    -0.84500
O1167       O  0.45325549  0.42490673  0.00245208    -0.84000
C1168       C  0.48686358  0.40382572  0.33282579     0.95400
O1169       O  0.49064245  0.42608125  0.34351809    -0.73100
O1170       O  0.44162136  0.41348973  0.35925763    -0.76700
Al1171     Al  0.47364282  0.43405816  0.39355781     1.49000
C1172       C  0.42112020  0.40935355  0.38074370     0.90700
O1173       O  0.42733140  0.36031701  0.44125102    -0.82900
O1174       O  0.49771935  0.40466382  0.00028379    -0.76400
Al1175     Al  0.44055691  0.39358357  0.46929564     1.90100
O1176       O  0.46481226  0.36081281  0.44703634    -0.75500
O1177       O  0.52228505  0.43137108  0.42264748    -0.75400
O1178       O  0.48528828  0.38809058  0.36548845    -0.81000
O1179       O  0.50441667  0.45597729  0.42446732    -0.79200
O1180       O  0.46827115  0.40779427  0.43149310    -1.15400
O1181       O  0.45856104  0.44824685  0.43710788    -0.74600
C1182       C  0.45427353  0.44422220  0.48227151     0.96200
C1183       C  0.43999888  0.34853066  0.44785362     0.92600
Al1184     Al  0.49102448  0.39679380  0.43313690     1.55600
O1185       O  0.41795453  0.40152262  0.42508664    -0.79200
C1186       C  0.52395629  0.45336772  0.42986937     0.96700
C1187       C  0.48029343  0.39595272  0.03256716     0.91600
O1188       O  0.45643430  0.38433797  0.02124286    -0.84500
O1189       O  0.36297444  0.24416054  0.15450306    -0.84000
C1190       C  0.41769539  0.26531862  0.32414258     0.95400
O1191       O  0.39922633  0.24304704  0.31345092    -0.73100
O1192       O  0.36274337  0.25554845  0.29770148    -0.76700
Al1193     Al  0.37423706  0.23502224  0.26339817     1.49000
C1194       C  0.34637517  0.25967818  0.27621979     0.90700
O1195       O  0.40158612  0.30873634  0.21576745    -0.82900
O1196       O  0.42772597  0.26450547  0.15668184    -0.76400
Al1197     Al  0.38158678  0.27548249  0.18768000     1.90100
O1198       O  0.43862006  0.30834187  0.20995431    -0.75500
O1199       O  0.42562386  0.23778948  0.23428994    -0.75400
O1200       O  0.43185797  0.28105931  0.29147979    -0.81000
O1201       O  0.38313633  0.21312653  0.23249397    -0.79200
O1202       O  0.39511940  0.26130303  0.22547101    -1.15400
O1203       O  0.34494900  0.22079878  0.21983884    -0.74600
C1204       C  0.34467141  0.22483997  0.17468459     0.96200
C1205       C  0.42604616  0.32057403  0.20915590     0.92600
Al1206     Al  0.42889554  0.27236274  0.22382909     1.55600
O1207       O  0.35103312  0.26749819  0.23187454    -0.79200
C1208       C  0.40530310  0.21576221  0.22710129     0.96700
C1209       C  0.41899260  0.27319187  0.12440192     0.91600
O1210       O  0.40672928  0.28477715  0.13573232    -0.84500
O1211       O  0.36297914  0.24416233  0.40450160    -0.84000
C1212       C  0.41769677  0.26531959  0.07414369     0.95400
O1213       O  0.39923003  0.24304719  0.06345020    -0.73100
O1214       O  0.36274579  0.25554733  0.04770227    -0.76700
Al1215     Al  0.37424094  0.23502236  0.01339815     1.49000
C1216       C  0.34637764  0.25967713  0.02622039     0.90700
O1217       O  0.40159010  0.30873729  0.46576995    -0.82900
O1218       O  0.42773050  0.26450688  0.40667908    -0.76400
Al1219     Al  0.38159156  0.27548371  0.43768056     1.90100
O1220       O  0.43862468  0.30834471  0.45995179    -0.75500
O1221       O  0.42563079  0.23779101  0.48428987    -0.75400
O1222       O  0.43186037  0.28106092  0.04148212    -0.81000
O1223       O  0.38314334  0.21312738  0.48248824    -0.79200
O1224       O  0.39512478  0.26130386  0.47546911    -1.15400
O1225       O  0.34495431  0.22079879  0.46983569    -0.74600
C1226       C  0.34467577  0.22484171  0.42468235     0.96200
C1227       C  0.42604989  0.32057627  0.45915622     0.92600
Al1228     Al  0.42890106  0.27236469  0.47382710     1.55600
O1229       O  0.35103875  0.26749844  0.48187601    -0.79200
C1230       C  0.40531046  0.21576262  0.47710468     0.96700
C1231       C  0.41899508  0.27319229  0.37440073     0.91600
O1232       O  0.40673388  0.28477936  0.38573343    -0.84500
O1233       O  0.21190451  0.30439087  0.07124310    -0.84000
C1234       C  0.17839726  0.24959872  0.24072122     0.95400
O1235       O  0.17449115  0.26798759  0.23001565    -0.73100
O1236       O  0.22350113  0.30453187  0.21442309    -0.76700
Al1237     Al  0.19148912  0.29302454  0.18006794     1.49000
C1238       C  0.24400132  0.32095751  0.19299345     0.90700
O1239       O  0.23804704  0.26584405  0.13222268    -0.82900
O1240       O  0.16759751  0.23958757  0.07326099    -0.76400
Al1241     Al  0.22469294  0.28582128  0.10431093     1.90100
O1242       O  0.20062206  0.22878174  0.12649827    -0.75500
O1243       O  0.14291330  0.24164241  0.15080139    -0.75400
O1244       O  0.18003218  0.23547573  0.20806063    -0.81000
O1245       O  0.16070065  0.28411825  0.14909449    -0.79200
O1246       O  0.19696288  0.27220894  0.14208948    -1.15400
O1247       O  0.20654452  0.32234094  0.13664076    -0.74600
C1248       C  0.21083412  0.32264366  0.09147832     0.96200
C1249       C  0.22544480  0.24137994  0.12561475     0.92600
Al1250     Al  0.17428753  0.23843098  0.14039444     1.55600
O1251       O  0.24721197  0.31635285  0.14863558    -0.79200
C1252       C  0.14117661  0.26194813  0.14364702     0.96700
C1253       C  0.18501894  0.24836677  0.04097663     0.91600
O1254       O  0.20887939  0.26072244  0.05228889    -0.84500
O1255       O  0.21190186  0.30438626  0.32124108    -0.84000
C1256       C  0.17839813  0.24959817  0.49072146     0.95400
O1257       O  0.17448874  0.26798475  0.48001447    -0.73100
O1258       O  0.22349878  0.30453026  0.46442159    -0.76700
Al1259     Al  0.19148629  0.29302122  0.43006604     1.49000
C1260       C  0.24399891  0.32095559  0.44299093     0.90700
O1261       O  0.23804283  0.26583791  0.38222262    -0.82900
O1262       O  0.16759297  0.23958227  0.32326147    -0.76400
Al1263     Al  0.22468943  0.28581608  0.35431005     1.90100
O1264       O  0.20061782  0.22877580  0.37649822    -0.75500
O1265       O  0.14290959  0.24163901  0.40080144    -0.75400
O1266       O  0.18003041  0.23547306  0.45806193    -0.81000
O1267       O  0.16069792  0.28411476  0.39909204    -0.79200
O1268       O  0.19695963  0.27220471  0.39208865    -1.15400
O1269       O  0.20654117  0.32233652  0.38663787    -0.74600
C1270       C  0.21083095  0.32263895  0.34147566     0.96200
C1271       C  0.22544063  0.24137369  0.37561453     0.92600
Al1272     Al  0.17428385  0.23842657  0.39039514     1.55600
O1273       O  0.24720936  0.31634896  0.39863391    -0.79200
C1274       C  0.14117358  0.26194504  0.39364436     0.96700
C1275       C  0.18501418  0.24836172  0.29097661     0.91600
O1276       O  0.20887477  0.26071658  0.30228859    -0.84500
O1277       O  0.30262283  0.21408785  0.16871261    -0.84000
C1278       C  0.24783556  0.18048885  0.99917302     0.95400
O1279       O  0.26625186  0.17662080  0.00988830    -0.73100
O1280       O  0.30277879  0.22561441  0.02553300    -0.76700
Al1281     Al  0.29126808  0.19360965  0.05988947     1.49000
C1282       C  0.31917977  0.24611788  0.04697353     0.90700
O1283       O  0.26394203  0.24007754  0.10765369    -0.82900
O1284       O  0.23781161  0.16966024  0.16662783    -0.76400
Al1285     Al  0.28399023  0.22679284  0.13559150     1.90100
O1286       O  0.22692643  0.20261457  0.11340863    -0.75500
O1287       O  0.23987065  0.14502593  0.08902141    -0.75400
O1288       O  0.23369619  0.18210796  0.03182597    -0.81000
O1289       O  0.28234929  0.16281602  0.09086597    -0.79200
O1290       O  0.27042151  0.19906053  0.09782420    -1.15400
O1291       O  0.32057449  0.20867511  0.10336870    -0.74600
C1292       C  0.32087499  0.21299280  0.14851898     0.96200
C1293       C  0.23947228  0.22742789  0.11427528     0.92600
Al1294     Al  0.23664155  0.17635443  0.09948785     1.55600
O1295       O  0.31452761  0.24933752  0.09129323    -0.79200
C1296       C  0.26016782  0.14329256  0.09624715     0.96700
C1297       C  0.24657830  0.18708199  0.19891241     0.91600
O1298       O  0.25889016  0.21094120  0.18759745    -0.84500
O1299       O  0.30262689  0.21409163  0.41871218    -0.84000
C1300       C  0.24783514  0.18048279  0.24917430     0.95400
O1301       O  0.26625416  0.17661856  0.25988819    -0.73100
O1302       O  0.30277748  0.22561363  0.27553250    -0.76700
Al1303     Al  0.29127070  0.19360957  0.30988937     1.49000
C1304       C  0.31917745  0.24611799  0.29697203     0.90700
O1305       O  0.26393847  0.24007267  0.35765142    -0.82900
O1306       O  0.23781587  0.16965812  0.41662973    -0.76400
Al1307     Al  0.28398994  0.22679190  0.38559014     1.90100
O1308       O  0.22692477  0.20260832  0.36340994    -0.75500
O1309       O  0.23987706  0.14502329  0.33902790    -0.75400
O1310       O  0.23369566  0.18210043  0.28182873    -0.81000
O1311       O  0.28235598  0.16281620  0.34086733    -0.79200
O1312       O  0.27042309  0.19905847  0.34782496    -1.15400
O1313       O  0.32057746  0.20867778  0.35336739    -0.74600
C1314       C  0.32087872  0.21299606  0.39851758     0.96200
C1315       C  0.23946889  0.22742183  0.36427484     0.92600
Al1316     Al  0.23664378  0.17634990  0.34949075     1.55600
O1317       O  0.31452533  0.24933770  0.34129134    -0.79200
C1318       C  0.26017541  0.14329195  0.34625381     0.96700
C1319       C  0.24658090  0.18708070  0.44891230     0.91600
O1320       O  0.25889103  0.21093964  0.43759621    -0.84500
O1321       O  0.91255406  0.21689078  0.03225705    -0.84000
C1322       C  0.93054815  0.18197018  0.20835685     0.95400
O1323       O  0.90897496  0.18021981  0.19775440    -0.73100
O1324       O  0.92165964  0.22781279  0.17576372    -0.76700
Al1325     Al  0.90080732  0.19542467  0.14364294     1.49000
C1326       C  0.92633422  0.24800744  0.15293049     0.90700
O1327       O  0.97401344  0.23969583  0.10590103    -0.82900
O1328       O  0.93081593  0.17024527  0.04041556    -0.76400
Al1329     Al  0.94288278  0.22772832  0.07007069     1.90100
O1330       O  0.97423527  0.20259765  0.10101316    -0.75500
O1331       O  0.90298866  0.14551480  0.11599318    -0.75400
O1332       O  0.94502253  0.18119900  0.17577798    -0.81000
O1333       O  0.87850135  0.16353469  0.11536967    -0.79200
O1334       O  0.92694972  0.19967884  0.10748642    -1.15400
O1335       O  0.88714334  0.21013946  0.09546071    -0.74600
C1336       C  0.89259400  0.21580172  0.05062581     0.96200
C1337       C  0.98557128  0.22678812  0.11126481     0.92600
Al1338     Al  0.93759284  0.17643694  0.10821065     1.55600
O1339       O  0.93453774  0.25065074  0.10941738    -0.79200
C1340       C  0.88103680  0.14388420  0.10972906     0.96700
C1341       C  0.93959389  0.18789047  0.00869893     0.91600
O1342       O  0.95346362  0.21147606  0.02128207    -0.84500
O1343       O  0.91254936  0.21688250  0.28225075    -0.84000
C1344       C  0.93055445  0.18197352  0.45835705     0.95400
O1345       O  0.90898114  0.18022426  0.44775884    -0.73100
O1346       O  0.92165955  0.22781357  0.42575455    -0.76700
Al1347     Al  0.90080775  0.19542208  0.39364263     1.49000
C1348       C  0.92633429  0.24800714  0.40291686     0.90700
O1349       O  0.97401177  0.23969347  0.35589274    -0.82900
O1350       O  0.93081430  0.17024001  0.29041362    -0.76400
Al1351     Al  0.94287995  0.22772302  0.32006248     1.90100
O1352       O  0.97423531  0.20259603  0.35101059    -0.75500
O1353       O  0.90298912  0.14550995  0.36599108    -0.75400
O1354       O  0.94502455  0.18119688  0.42577544    -0.81000
O1355       O  0.87850086  0.16352853  0.36537867    -0.79200
O1356       O  0.92694874  0.19967496  0.35748319    -1.15400
O1357       O  0.88713992  0.21013163  0.34545671    -0.74600
C1358       C  0.89258924  0.21579311  0.30062103     0.96200
C1359       C  0.98557012  0.22678654  0.36126273     0.92600
Al1360     Al  0.93759288  0.17643355  0.35820839     1.55600
O1361       O  0.93453514  0.25064679  0.35940278    -0.79200
C1362       C  0.88103670  0.14387867  0.35973059     0.96700
C1363       C  0.93959044  0.18788451  0.25869592     0.91600
O1364       O  0.95346126  0.21147003  0.27127744    -0.84500
O1365       O  0.08564901  0.30359593  0.20760076    -0.84000
C1366       C  0.06770487  0.25066513  0.03148519     0.95400
O1367       O  0.08927887  0.27050204  0.04210434    -0.73100
O1368       O  0.07663135  0.30543372  0.06409071    -0.76700
Al1369     Al  0.09745032  0.29387601  0.09624245     1.49000
C1370       C  0.07191911  0.32092459  0.08692360     0.90700
O1371       O  0.02420837  0.26483858  0.13388664    -0.82900
O1372       O  0.06744309  0.23866442  0.19942307    -0.76400
Al1373     Al  0.05533573  0.28405250  0.16974823     1.90100
O1374       O  0.02401586  0.22753849  0.13886327    -0.75500
O1375       O  0.09523051  0.24175333  0.12379069    -0.75400
O1376       O  0.05321939  0.23540788  0.06405630    -0.81000
O1377       O  0.11973571  0.28427183  0.12455037    -0.79200
O1378       O  0.07129139  0.27196361  0.13235802    -1.15400
O1379       O  0.11110374  0.32226318  0.14444783    -0.74600
C1380       C  0.10562001  0.32248270  0.18926154     0.96200
C1381       C  0.01266515  0.24036064  0.12856235     0.92600
Al1382     Al  0.06065113  0.23806707  0.13162392     1.55600
O1383       O  0.06366982  0.31532157  0.13040260    -0.79200
C1384       C  0.11718090  0.26206949  0.13012643     0.96700
C1385       C  0.05866438  0.24752909  0.23113478     0.91600
O1386       O  0.04477652  0.25721643  0.21854431    -0.84500
O1387       O  0.08565109  0.30359891  0.45760045    -0.84000
C1388       C  0.06769974  0.25066476  0.28148512     0.95400
O1389       O  0.08927440  0.27050139  0.29210260    -0.73100
O1390       O  0.07662934  0.30543498  0.31409218    -0.76700
Al1391     Al  0.09744831  0.29387601  0.34624097     1.49000
C1392       C  0.07191556  0.32092451  0.33692654     0.90700
O1393       O  0.02420601  0.26483770  0.38389495    -0.82900
O1394       O  0.06744536  0.23866495  0.44942029    -0.76400
Al1395     Al  0.05533595  0.28405326  0.41975241     1.90100
O1396       O  0.02401440  0.22753837  0.38887003    -0.75500
O1397       O  0.09522787  0.24175230  0.37378341    -0.75400
O1398       O  0.05321450  0.23540831  0.31405736    -0.81000
O1399       O  0.11973389  0.28427057  0.37454693    -0.79200
O1400       O  0.07129018  0.27196415  0.38235876    -1.15400
O1401       O  0.11110400  0.32226402  0.39444476    -0.74600
C1402       C  0.10562206  0.32248485  0.43925902     0.96200
C1403       C  0.01266337  0.24035994  0.37856743     0.92600
Al1404     Al  0.06064938  0.23806725  0.38162345     1.55600
O1405       O  0.06366706  0.31532090  0.38040587    -0.79200
C1406       C  0.11717845  0.26206775  0.38012173     0.96700
C1407       C  0.05867069  0.24753178  0.48113538     0.91600
O1408       O  0.04478142  0.25721860  0.46855042    -0.84500
O1409       O  0.03005435  0.45196675  0.12453106    -0.84000
C1410       C  0.08295016  0.48697459  0.44840326     0.95400
O1411       O  0.06309217  0.48866021  0.45900366    -0.73100
O1412       O  0.02824076  0.44104024  0.48101842    -0.76700
Al1413     Al  0.03973019  0.47341383  0.01312982     1.49000
C1414       C  0.01273070  0.42083973  0.00386523     0.90700
O1415       O  0.06879406  0.42928890  0.05084743    -0.82900
O1416       O  0.09495929  0.49871612  0.11635087    -0.76400
Al1417     Al  0.04958544  0.44119004  0.08670444     1.90100
O1418       O  0.10610011  0.46643410  0.05570687    -0.75500
O1419       O  0.09178825  0.52339191  0.04081636    -0.75400
O1420       O  0.09822011  0.48779954  0.48098271    -0.81000
O1421       O  0.04925589  0.50527545  0.04140065    -0.79200
O1422       O  0.06166169  0.46923117  0.04928474    -1.15400
O1423       O  0.01135157  0.45865322  0.06132766    -0.74600
C1424       C  0.01115984  0.45301480  0.10616935     0.96200
C1425       C  0.09326801  0.44224454  0.04542919     0.92600
Al1426     Al  0.09554868  0.49253407  0.04855348     1.55600
O1427       O  0.01830581  0.41821343  0.04737660    -0.79200
C1428       C  0.07143058  0.52495130  0.04710565     0.96700
C1429       C  0.08610446  0.48107237  0.14806699     0.91600
O1430       O  0.07643036  0.45749403  0.13548203    -0.84500
O1431       O  0.03004898  0.45197177  0.37452917    -0.84000
C1432       C  0.08295115  0.48697174  0.19840278     0.95400
O1433       O  0.06309140  0.48865521  0.20899896    -0.73100
O1434       O  0.02823853  0.44103713  0.23102340    -0.76700
Al1435     Al  0.03972323  0.47341369  0.26312410     1.49000
C1436       C  0.01272516  0.42083820  0.25386897     0.90700
O1437       O  0.06878804  0.42929090  0.30084987    -0.82900
O1438       O  0.09495253  0.49871851  0.36635008    -0.76400
Al1439     Al  0.04957973  0.44119314  0.33670548     1.90100
O1440       O  0.10609405  0.46643662  0.30570403    -0.75500
O1441       O  0.09178004  0.52339367  0.29081882    -0.75400
O1442       O  0.09822114  0.48779982  0.23098508    -0.81000
O1443       O  0.04924767  0.50527710  0.29138826    -0.79200
O1444       O  0.06165530  0.46923324  0.29928272    -1.15400
O1445       O  0.01134566  0.45865571  0.31132288    -0.74600
C1446       C  0.01115471  0.45302002  0.35616588     0.96200
C1447       C  0.09326192  0.44224652  0.29542920     0.92600
Al1448     Al  0.09554202  0.49253684  0.29855316     1.55600
O1449       O  0.01830022  0.41821516  0.29738181    -0.79200
C1450       C  0.07142178  0.52495244  0.29710303     0.96700
C1451       C  0.08610017  0.48107515  0.39806644     0.91600
O1452       O  0.07642507  0.45749689  0.38548167    -0.84500
O1453       O  0.11661546  0.36555874  0.44889367    -0.84000
C1454       C  0.15157727  0.41847861  0.12505958     0.95400
O1455       O  0.15328946  0.39863649  0.11445874    -0.73100
O1456       O  0.10570478  0.36370508  0.09239936    -0.76700
Al1457     Al  0.13810230  0.37527250  0.06030630     1.49000
C1458       C  0.08551790  0.34817285  0.06954534     0.90700
O1459       O  0.09388643  0.40424342  0.02264566    -0.82900
O1460       O  0.16332912  0.43049699  0.45710970    -0.76400
Al1461     Al  0.10581688  0.38506706  0.48675836     1.90100
O1462       O  0.13100194  0.44157368  0.01772349    -0.75500
O1463       O  0.18804579  0.42739907  0.03272344    -0.75400
O1464       O  0.15237541  0.43373650  0.09248024    -0.81000
O1465       O  0.17000188  0.38488028  0.03207583    -0.79200
O1466       O  0.13387301  0.39717611  0.02416906    -1.15400
O1467       O  0.12339481  0.34690177  0.01207051    -0.74600
C1468       C  0.11771246  0.34668681  0.46723861     0.96200
C1469       C  0.10681635  0.42871879  0.02803649     0.92600
Al1470     Al  0.15713902  0.43107697  0.02491538     1.55600
O1471       O  0.08287372  0.35376421  0.02605853    -0.79200
C1472       C  0.18966637  0.40707597  0.02648442     0.96700
C1473       C  0.14567777  0.42162321  0.42540071     0.91600
O1474       O  0.12209456  0.41192373  0.43799660    -0.84500
O1475       O  0.11661023  0.36555545  0.19889644    -0.84000
C1476       C  0.15157540  0.41847946  0.37505759     0.95400
O1477       O  0.15328507  0.39863601  0.36445605    -0.73100
O1478       O  0.10569865  0.36370615  0.34240080    -0.76700
Al1479     Al  0.13809503  0.37527137  0.31030507     1.49000
C1480       C  0.08551150  0.34817293  0.31954860     0.90700
O1481       O  0.09387958  0.40424439  0.27264730    -0.82900
O1482       O  0.16332671  0.43049408  0.20711300    -0.76400
Al1483     Al  0.10581285  0.38506533  0.23675889     1.90100
O1484       O  0.13099580  0.44157387  0.26772472    -0.75500
O1485       O  0.18803858  0.42739594  0.28271872    -0.75400
O1486       O  0.15237133  0.43373632  0.34247841    -0.81000
O1487       O  0.16999346  0.38487700  0.28207157    -0.79200
O1488       O  0.13386561  0.39717514  0.27416849    -1.15400
O1489       O  0.12338554  0.34690007  0.26207083    -0.74600
C1490       C  0.11770771  0.34668391  0.21724202     0.96200
C1491       C  0.10681004  0.42871987  0.27803739     0.92600
Al1492     Al  0.15713248  0.43107572  0.27491368     1.55600
O1493       O  0.08286562  0.35376401  0.27606242    -0.79200
C1494       C  0.18965849  0.40707231  0.27648065     0.96700
C1495       C  0.14567664  0.42162084  0.17540193     0.91600
O1496       O  0.12209286  0.41192131  0.18799496    -0.84500
O1497       O  0.96809768  0.42092999  0.11577894    -0.84000
C1498       C  0.91515254  0.40283579  0.29189201     0.95400
O1499       O  0.93497204  0.42442066  0.28128256    -0.73100
O1500       O  0.96994334  0.41181989  0.25928711    -0.76700
Al1501     Al  0.95836255  0.43262675  0.22717504     1.49000
C1502       C  0.98548774  0.40718858  0.23644061     0.90700
O1503       O  0.92949860  0.35947307  0.18941574    -0.82900
O1504       O  0.90316671  0.40258167  0.12395840    -0.76400
Al1505     Al  0.94863645  0.39059607  0.15358870     1.90100
O1506       O  0.89214606  0.35919476  0.18445090    -0.75500
O1507       O  0.90620138  0.43030384  0.19965353    -0.75400
O1508       O  0.89992266  0.38832682  0.25931397    -0.81000
O1509       O  0.94872326  0.45486734  0.19890925    -0.79200
O1510       O  0.93648730  0.40647775  0.19102029    -1.15400
O1511       O  0.98675508  0.44633924  0.17898595    -0.74600
C1512       C  0.98696849  0.44089790  0.13414768     0.96200
C1513       C  0.90501972  0.34789930  0.19474734     0.92600
Al1514     Al  0.90257966  0.39577728  0.19175241     1.55600
O1515       O  0.97993049  0.39899024  0.19292411    -0.79200
C1516       C  0.92650150  0.45226670  0.19335676     0.96700
C1517       C  0.91203984  0.39381473  0.09223847     0.91600
O1518       O  0.92178045  0.37997511  0.10481932    -0.84500
O1519       O  0.96809201  0.42093813  0.36577657    -0.84000
C1520       C  0.91515800  0.40283843  0.04189405     0.95400
O1521       O  0.93497739  0.42442422  0.03128814    -0.73100
O1522       O  0.96994990  0.41182647  0.00928635    -0.76700
Al1523     Al  0.95836173  0.43263266  0.47717792     1.49000
C1524       C  0.98548886  0.40719487  0.48643221     0.90700
O1525       O  0.92950069  0.35948169  0.43941539    -0.82900
O1526       O  0.90316440  0.40258659  0.37395744    -0.76400
Al1527     Al  0.94863483  0.39060374  0.40358675     1.90100
O1528       O  0.89214644  0.35920088  0.43445544    -0.75500
O1529       O  0.90619916  0.43031032  0.44965204    -0.75400
O1530       O  0.89992652  0.38833305  0.00931453    -0.81000
O1531       O  0.94872088  0.45487488  0.44892148    -0.79200
O1532       O  0.93648585  0.40648457  0.44102138    -1.15400
O1533       O  0.98675196  0.44634696  0.42898383    -0.74600
C1534       C  0.98696382  0.44090552  0.38414488     0.96200
C1535       C  0.90502188  0.34790660  0.44474831     0.92600
Al1536     Al  0.90257821  0.39578351  0.44175356     1.55600
O1537       O  0.97993114  0.39899972  0.44291435    -0.79200
C1538       C  0.92649935  0.45227400  0.44336244     0.96700
C1539       C  0.91203505  0.39381628  0.34223888     0.91600
O1540       O  0.92177612  0.37997791  0.35482308    -0.84500
O1541       O  0.88158834  0.24784654  0.29103538    -0.84000
C1542       C  0.84670278  0.26588421  0.11491719     0.95400
O1543       O  0.84495442  0.24431436  0.12551792    -0.73100
O1544       O  0.89254612  0.25697743  0.14753015    -0.76700
Al1545     Al  0.86014554  0.23613047  0.17962810     1.49000
C1546       C  0.91273146  0.26162763  0.17037496     0.90700
O1547       O  0.90441586  0.30929205  0.21739083    -0.82900
O1548       O  0.83495546  0.26611259  0.28285799    -0.76400
Al1549     Al  0.89244547  0.27817553  0.25322309     1.90100
O1550       O  0.86731111  0.30951105  0.22235236    -0.75500
O1551       O  0.81025070  0.23835324  0.20717697    -0.75400
O1552       O  0.84595295  0.28036842  0.14749939    -0.81000
O1553       O  0.82824835  0.21384508  0.20787006    -0.79200
O1554       O  0.86440003  0.26226052  0.21579331    -1.15400
O1555       O  0.87484034  0.22244744  0.22782038    -0.74600
C1556       C  0.88049713  0.22788940  0.27265975     0.96200
C1557       C  0.89149347  0.32083580  0.21205656     0.92600
Al1558     Al  0.84116454  0.27291357  0.21506344     1.55600
O1559       O  0.91537007  0.26982107  0.21389316    -0.79200
C1560       C  0.80860329  0.21640080  0.21343347     0.96700
C1561       C  0.85260487  0.27490647  0.31457521     0.91600
O1562       O  0.87619346  0.28876854  0.30199040    -0.84500
O1563       O  0.88159564  0.24785626  0.04103591    -0.84000
C1564       C  0.84670268  0.26588274  0.36492020     0.95400
O1565       O  0.84495295  0.24431278  0.37552565    -0.73100
O1566       O  0.89254835  0.25698008  0.39752141    -0.76700
Al1567     Al  0.86015175  0.23613450  0.42963099     1.49000
C1568       C  0.91273565  0.26163171  0.42036058     0.90700
O1569       O  0.90442178  0.30930001  0.46738159    -0.82900
O1570       O  0.83495909  0.26612121  0.03285457    -0.76400
Al1571     Al  0.89245046  0.27818332  0.00322064     1.90100
O1572       O  0.86731622  0.30951632  0.47235316    -0.75500
O1573       O  0.81025945  0.23835851  0.45717441    -0.75400
O1574       O  0.84595952  0.28037198  0.39749931    -0.81000
O1575       O  0.82825877  0.21385182  0.45788579    -0.79200
O1576       O  0.86440854  0.26226665  0.46579149    -1.15400
O1577       O  0.87485256  0.22245541  0.47781890    -0.74600
C1578       C  0.88050310  0.22789817  0.02266319     0.96200
C1579       C  0.89149797  0.32084268  0.46205398     0.92600
Al1580     Al  0.84117208  0.27291869  0.46506251     1.55600
O1581       O  0.91537931  0.26983043  0.46387615    -0.79200
C1582       C  0.80861287  0.21640704  0.46343886     0.96700
C1583       C  0.85260771  0.27491239  0.06457346     0.91600
O1584       O  0.87619701  0.28877465  0.05199052    -0.84500
O1585       O  0.30167049  0.08774932  0.53231683    -0.84000
C1586       C  0.24874472  0.06979996  0.70840117     0.95400
O1587       O  0.26859108  0.09136286  0.69779513    -0.73100
O1588       O  0.30344997  0.07862075  0.67582724    -0.76700
Al1589     Al  0.29197081  0.09950303  0.64370095     1.49000
C1590       C  0.31897408  0.07395372  0.65300495     0.90700
O1591       O  0.26292803  0.02630739  0.60597480    -0.82900
O1592       O  0.23677349  0.06955481  0.54045937    -0.76400
Al1593     Al  0.28214216  0.05742823  0.57013253     1.90100
O1594       O  0.22563231  0.02614235  0.60101521    -0.75500
O1595       O  0.23990682  0.09735630  0.61606677    -0.75400
O1596       O  0.23348899  0.05532509  0.67582198    -0.81000
O1597       O  0.28243771  0.12182141  0.61541403    -0.79200
O1598       O  0.27005473  0.07337752  0.60753732    -1.15400
O1599       O  0.32035482  0.11314739  0.59552994    -0.74600
C1600       C  0.32055120  0.10770991  0.55068751     0.96200
C1601       C  0.23844937  0.01478685  0.61131873     0.92600
Al1602     Al  0.23616914  0.06276532  0.60825277     1.55600
O1603       O  0.31341514  0.06575458  0.60948856    -0.79200
C1604       C  0.26025122  0.11929053  0.60977445     0.96700
C1605       C  0.24561365  0.06075289  0.50874819     0.91600
O1606       O  0.25530282  0.04686796  0.52133883    -0.84500
O1607       O  0.30166297  0.08777274  0.78231178    -0.84000
C1608       C  0.24874529  0.06979893  0.95840606     0.95400
O1609       O  0.26859231  0.09136263  0.94780767    -0.73100
O1610       O  0.30345161  0.07862678  0.92581568    -0.76700
Al1611     Al  0.29196967  0.09951169  0.89370884     1.49000
C1612       C  0.31897662  0.07396496  0.90298375     0.90700
O1613       O  0.26293136  0.02632212  0.85595439    -0.82900
O1614       O  0.23677063  0.06957078  0.79046002    -0.76400
Al1615     Al  0.28214113  0.05744656  0.82011867     1.90100
O1616       O  0.22563353  0.02615439  0.85100886    -0.75500
O1617       O  0.23990391  0.09736620  0.86607606    -0.75400
O1618       O  0.23348724  0.05533083  0.92582269    -0.81000
O1619       O  0.28243475  0.12183250  0.86544278    -0.79200
O1620       O  0.27005312  0.07339026  0.85753672    -1.15400
O1621       O  0.32035144  0.11316326  0.84553248    -0.74600
C1622       C  0.32054547  0.10773040  0.80068640     0.96200
C1623       C  0.23845269  0.01479986  0.86130445     0.92600
Al1624     Al  0.23616751  0.06277663  0.85825429     1.55600
O1625       O  0.31341797  0.06577328  0.85946309    -0.79200
C1626       C  0.26024871  0.11930077  0.85979153     0.96700
C1627       C  0.24560844  0.06076834  0.75874493     0.91600
O1628       O  0.25529894  0.04688451  0.77133222    -0.84500
O1629       O  0.21481782  0.91465772  0.70767758    -0.84000
C1630       C  0.17999244  0.93277143  0.53155375     0.95400
O1631       O  0.17820071  0.91118308  0.54215801    -0.73100
O1632       O  0.22576889  0.92377125  0.56416550    -0.76700
Al1633     Al  0.19336444  0.90296749  0.59627208     1.49000
C1634       C  0.24594665  0.92839625  0.58700887     0.90700
O1635       O  0.23773883  0.97612633  0.63401778    -0.82900
O1636       O  0.16825979  0.93304418  0.69949772    -0.76400
Al1637     Al  0.22571559  0.94499714  0.66985747     1.90100
O1638       O  0.20067450  0.97642478  0.63893229    -0.75500
O1639       O  0.14350282  0.90526441  0.62387855    -0.75400
O1640       O  0.17925440  0.94726253  0.56413209    -0.81000
O1641       O  0.16146165  0.88072227  0.62452215    -0.79200
O1642       O  0.19766363  0.92911695  0.63243305    -1.15400
O1643       O  0.20802610  0.88924495  0.64446821    -0.74600
C1644       C  0.21369301  0.89468333  0.68930703     0.96200
C1645       C  0.22486025  0.98771378  0.62865137     0.92600
Al1646     Al  0.17446779  0.93982291  0.63170087     1.55600
O1647       O  0.24859890  0.93659369  0.63052477    -0.79200
C1648       C  0.14183218  0.88329852  0.63013561     0.96700
C1649       C  0.18590739  0.94179959  0.73121465     0.91600
O1650       O  0.20950036  0.95562873  0.71863032    -0.84500
O1651       O  0.21483714  0.91467639  0.95768038    -0.84000
C1652       C  0.17998514  0.93277074  0.78155919     0.95400
O1653       O  0.17819715  0.91118455  0.79216922    -0.73100
O1654       O  0.22576829  0.92377449  0.81416408    -0.76700
Al1655     Al  0.19336703  0.90297454  0.84628268     1.49000
C1656       C  0.24594860  0.92840256  0.83700183     0.90700
O1657       O  0.23774523  0.97613965  0.88400145    -0.82900
O1658       O  0.16827205  0.93306006  0.94950234    -0.76400
Al1659     Al  0.22572683  0.94501247  0.91984999     1.90100
O1660       O  0.20068051  0.97643646  0.88892466    -0.75500
O1661       O  0.14350744  0.90527336  0.87389474    -0.75400
O1662       O  0.17925316  0.94726640  0.81413467    -0.81000
O1663       O  0.16146683  0.88073194  0.87454522    -0.79200
O1664       O  0.19767039  0.92912783  0.88243581    -1.15400
O1665       O  0.20803280  0.88925601  0.89447809    -0.74600
C1666       C  0.21370543  0.89469769  0.93931411     0.96200
C1667       C  0.22486564  0.98772629  0.87863793     0.92600
Al1668     Al  0.17447368  0.93983329  0.88170526     1.55600
O1669       O  0.24860643  0.93660679  0.88051322    -0.79200
C1670       C  0.14183669  0.88330745  0.88015392     0.96700
C1671       C  0.18592202  0.94181471  0.98121413     0.91600
O1672       O  0.20951410  0.95564549  0.96862481    -0.84500
O1673       O  0.36361186  0.11877578  0.79111315    -0.84000
C1674       C  0.41654523  0.15358317  0.61499880     0.95400
O1675       O  0.39672638  0.15533814  0.62558922    -0.73100
O1676       O  0.36175805  0.10774161  0.64760748    -0.76700
Al1677     Al  0.37333288  0.14014444  0.67968704     1.49000
C1678       C  0.34620245  0.08756485  0.67046984     0.90700
O1679       O  0.40212424  0.09584282  0.71756189    -0.82900
O1680       O  0.42854043  0.16531810  0.78293928    -0.76400
Al1681     Al  0.38303249  0.10785962  0.75334417     1.90100
O1682       O  0.43951244  0.13291688  0.72240208    -0.75500
O1683       O  0.42548532  0.19001977  0.70730951    -0.75400
O1684       O  0.43177335  0.15432316  0.64758707    -0.81000
O1685       O  0.38296103  0.17202648  0.70792776    -0.79200
O1686       O  0.39520228  0.13588706  0.71587439    -1.15400
O1687       O  0.34493681  0.12545842  0.72786339    -0.74600
C1688       C  0.34473331  0.11983570  0.77271887     0.96200
C1689       C  0.42659831  0.10872527  0.71219725     0.92600
Al1690     Al  0.42911089  0.15910143  0.71514773     1.55600
O1691       O  0.35173548  0.08494720  0.71401751    -0.79200
C1692       C  0.40517270  0.19165826  0.71357635     0.96700
C1693       C  0.41965701  0.14767799  0.81466698     0.91600
O1694       O  0.40989490  0.12409034  0.80209765    -0.84500
O1695       O  0.36361887  0.11875927  0.54110856    -0.84000
C1696       C  0.41654472  0.15359207  0.86500258     0.95400
O1697       O  0.39673124  0.15535460  0.87560236    -0.73100
O1698       O  0.36176111  0.10775270  0.89759654    -0.76700
Al1699     Al  0.37333546  0.14015047  0.92969435     1.49000
C1700       C  0.34620458  0.08757304  0.92045092     0.90700
O1701       O  0.40212079  0.09583933  0.96754930    -0.82900
O1702       O  0.42855212  0.16531485  0.53294109    -0.76400
Al1703     Al  0.38304540  0.10785525  0.50332874     1.90100
O1704       O  0.43951101  0.13291086  0.97239164    -0.75500
O1705       O  0.42548852  0.19001942  0.95731737    -0.75400
O1706       O  0.43177114  0.15432250  0.89758479    -0.81000
O1707       O  0.38296405  0.17202651  0.95795539    -0.79200
O1708       O  0.39520337  0.13588671  0.96587372    -1.15400
O1709       O  0.34493695  0.12545747  0.97786475    -0.74600
C1710       C  0.34473927  0.11981873  0.52271947     0.96200
C1711       C  0.42659488  0.10871941  0.96218704     0.92600
Al1712     Al  0.42911249  0.15909861  0.96514645     1.55600
O1713       O  0.35173583  0.08494947  0.96399716    -0.79200
C1714       C  0.40517648  0.19165836  0.96359384     0.96700
C1715       C  0.41966539  0.14767209  0.56466424     0.91600
O1716       O  0.40990540  0.12408506  0.55208911    -0.84500
O1717       O  0.44966575  0.03184499  0.61608403    -0.84000
C1718       C  0.48471383  0.08475998  0.79213495     0.95400
O1719       O  0.48642595  0.06492067  0.78152007    -0.73100
O1720       O  0.43877358  0.03006450  0.75959723    -0.76700
Al1721     Al  0.47114163  0.04153491  0.72743926     1.49000
C1722       C  0.41855510  0.01456966  0.73677508     0.90700
O1723       O  0.42706287  0.07064026  0.68967826    -0.82900
O1724       O  0.49647328  0.09672439  0.62420307    -0.76400
Al1725     Al  0.43891895  0.05139744  0.65387601     1.90100
O1726       O  0.46423750  0.10791184  0.68467212    -0.75500
O1727       O  0.52109766  0.09358440  0.69987061    -0.75400
O1728       O  0.48549402  0.10001419  0.75955862    -0.81000
O1729       O  0.50299396  0.05105731  0.69910134    -0.79200
O1730       O  0.46695846  0.06346131  0.69128125    -1.15400
O1731       O  0.45634780  0.01314452  0.67929204    -0.74600
C1732       C  0.45070640  0.01295272  0.63445537     0.96200
C1733       C  0.44005530  0.09511656  0.69496035     0.92600
Al1734     Al  0.49027413  0.09733962  0.69199219     1.55600
O1735       O  0.41592637  0.02014760  0.69326456    -0.79200
C1736       C  0.52266501  0.07324632  0.69348504     0.96700
C1737       C  0.47882677  0.08789655  0.59248083     0.91600
O1738       O  0.45524293  0.07822005  0.60505708    -0.84500
O1739       O  0.44965963  0.03183518  0.86608496    -0.84000
C1740       C  0.48472024  0.08476343  0.54213479     0.95400
O1741       O  0.48642601  0.06491954  0.53152739    -0.73100
O1742       O  0.43877526  0.03006671  0.50959565    -0.76700
Al1743     Al  0.47112887  0.04152265  0.97744569     1.49000
C1744       C  0.41854248  0.01455622  0.98676775     0.90700
O1745       O  0.42705455  0.07063044  0.93967478    -0.82900
O1746       O  0.49646544  0.09671047  0.87420552    -0.76400
Al1747     Al  0.43891059  0.05138654  0.90387387     1.90100
O1748       O  0.46423087  0.10790075  0.93466599    -0.75500
O1749       O  0.52108682  0.09357098  0.94987596    -0.75400
O1750       O  0.48550692  0.10001815  0.50955293    -0.81000
O1751       O  0.50298364  0.05104406  0.94911858    -0.79200
O1752       O  0.46694867  0.06344939  0.94128293    -1.15400
O1753       O  0.45633987  0.01313439  0.92929567    -0.74600
C1754       C  0.45070167  0.01294383  0.88445748     0.96200
C1755       C  0.44004855  0.09510704  0.94495376     0.92600
Al1756     Al  0.49026528  0.09732718  0.94199237     1.55600
O1757       O  0.41591571  0.02013464  0.94325665    -0.79200
C1758       C  0.52265405  0.07323273  0.94349555     0.96700
C1759       C  0.47881960  0.08788703  0.84248232     0.91600
O1760       O  0.45523557  0.07820995  0.85505695    -0.84500
O1761       O  0.41862093  0.96990131  0.62483079    -0.84000
C1762       C  0.40058170  0.91701592  0.94864961     0.95400
O1763       O  0.42214371  0.93686951  0.95923467    -0.73100
O1764       O  0.40948155  0.97176764  0.98132846    -0.76700
Al1765     Al  0.43034402  0.96023674  0.51337997     1.49000
C1766       C  0.40488410  0.98733524  0.50419749     0.90700
O1767       O  0.35720937  0.93133509  0.55108242    -0.82900
O1768       O  0.40031953  0.90501864  0.61660668    -0.76400
Al1769     Al  0.38830096  0.95045536  0.58698698     1.90100
O1770       O  0.35693797  0.89398583  0.55598010    -0.75500
O1771       O  0.42812274  0.90812380  0.54102547    -0.75400
O1772       O  0.38612086  0.90175728  0.98123751    -0.81000
O1773       O  0.45264199  0.95064551  0.54157258    -0.79200
O1774       O  0.40421411  0.93833733  0.54954694    -1.15400
O1775       O  0.44403403  0.98858939  0.56162222    -0.74600
C1776       C  0.43859227  0.98877584  0.60647047     0.96200
C1777       C  0.34565663  0.90686894  0.54561525     0.92600
Al1778     Al  0.39354962  0.90444244  0.54880758     1.55600
O1779       O  0.39669947  0.98177521  0.54772202    -0.79200
C1780       C  0.45007915  0.92845073  0.54725075     0.96700
C1781       C  0.39153261  0.91387381  0.64831428     0.91600
O1782       O  0.37766122  0.92357562  0.63571176    -0.84500
O1783       O  0.41862125  0.96989210  0.87483157    -0.84000
C1784       C  0.40058054  0.91702545  0.69864927     0.95400
O1785       O  0.42214337  0.93687819  0.70923184    -0.73100
O1786       O  0.40948678  0.97177908  0.73133327    -0.76700
Al1787     Al  0.43034175  0.96023288  0.76337814     1.49000
C1788       C  0.40488219  0.98733221  0.75420258     0.90700
O1789       O  0.35720759  0.93133054  0.80108843    -0.82900
O1790       O  0.40031906  0.90501091  0.86660195    -0.76400
Al1791     Al  0.38830045  0.95044914  0.83699050     1.90100
O1792       O  0.35693525  0.89398063  0.80597819    -0.75500
O1793       O  0.42812095  0.90811902  0.79101463    -0.75400
O1794       O  0.38611949  0.90176778  0.73123749    -0.81000
O1795       O  0.45264005  0.95064076  0.79156604    -0.79200
O1796       O  0.40421229  0.93833215  0.79954545    -1.15400
O1797       O  0.44403227  0.98858392  0.81162238    -0.74600
C1798       C  0.43859108  0.98876810  0.85647150     0.96200
C1799       C  0.34565406  0.90686458  0.79561784     0.92600
Al1800     Al  0.39354740  0.90443737  0.79880168     1.55600
O1801       O  0.39669880  0.98177115  0.79772825    -0.79200
C1802       C  0.45007741  0.92844591  0.79724173     0.96700
C1803       C  0.39153323  0.91386560  0.89831316     0.91600
O1804       O  0.37766167  0.92356781  0.88571347    -0.84500
O1805       O  0.24570916  0.88361381  0.94891462    -0.84000
C1806       C  0.26365696  0.84866219  0.62507330     0.95400
O1807       O  0.24210253  0.84695459  0.61446599    -0.73100
O1808       O  0.25482601  0.89455259  0.59242680    -0.76700
Al1809     Al  0.23395084  0.86216415  0.56033400     1.49000
C1810       C  0.25951725  0.91474559  0.56957210     0.90700
O1811       O  0.30712165  0.90633228  0.52263659    -0.82900
O1812       O  0.26387618  0.83689676  0.95713167    -0.76400
Al1813     Al  0.27602801  0.89441103  0.98675406     1.90100
O1814       O  0.30730212  0.86921475  0.51768032    -0.75500
O1815       O  0.23611091  0.81223726  0.53281316    -0.75400
O1816       O  0.27813004  0.84788467  0.59249659    -0.81000
O1817       O  0.21164655  0.83028611  0.53209854    -0.79200
O1818       O  0.26007205  0.86637599  0.52418284    -1.15400
O1819       O  0.22030263  0.87689041  0.51211511    -0.74600
C1820       C  0.22576397  0.88256133  0.96728141     0.96200
C1821       C  0.31863023  0.89338176  0.52807111     0.92600
Al1822     Al  0.27068661  0.84310897  0.52493493     1.55600
O1823       O  0.26770993  0.91736756  0.52605619    -0.79200
C1824       C  0.21417631  0.81062817  0.52653790     0.96700
C1825       C  0.27268485  0.85454592  0.92541578     0.91600
O1826       O  0.28658753  0.87812598  0.93800280    -0.84500
O1827       O  0.24570447  0.88361130  0.69891101    -0.84000
C1828       C  0.26365112  0.84865886  0.87507192     0.95400
O1829       O  0.24209903  0.84695722  0.86446652    -0.73100
O1830       O  0.25482301  0.89455553  0.84242457    -0.76700
Al1831     Al  0.23394748  0.86216651  0.81033335     1.49000
C1832       C  0.25951680  0.91474908  0.81956862     0.90700
O1833       O  0.30712004  0.90633110  0.77263985    -0.82900
O1834       O  0.26388177  0.83690425  0.70713502    -0.76400
Al1835     Al  0.27602409  0.89441544  0.73675260     1.90100
O1836       O  0.30729743  0.86921215  0.76768137    -0.75500
O1837       O  0.23610478  0.81223780  0.78280958    -0.75400
O1838       O  0.27812312  0.84788054  0.84249414    -0.81000
O1839       O  0.21164152  0.83028772  0.78209954    -0.79200
O1840       O  0.26006844  0.86637713  0.77418271    -1.15400
O1841       O  0.22030012  0.87689258  0.76211366    -0.74600
C1842       C  0.22575598  0.88255292  0.71727523     0.96200
C1843       C  0.31862719  0.89337902  0.77807377     0.92600
Al1844     Al  0.27068083  0.84310808  0.77493338     1.55600
O1845       O  0.26771076  0.91737051  0.77605436    -0.79200
C1846       C  0.21417047  0.81062937  0.77653715     0.96700
C1847       C  0.27268987  0.85455243  0.67541774     0.91600
O1848       O  0.28658903  0.87813316  0.68800392    -0.84500
O1849       O  0.75223122  0.63665300  0.79125269    -0.84000
C1850       C  0.73413108  0.58376702  0.61511906     0.95400
O1851       O  0.75569827  0.60360988  0.62570570    -0.73100
O1852       O  0.74300810  0.63851086  0.64774315    -0.76700
Al1853     Al  0.76388310  0.62698953  0.67979969     1.49000
C1854       C  0.73838096  0.65405060  0.67061226     0.90700
O1855       O  0.69081227  0.59813562  0.71766790    -0.82900
O1856       O  0.73390456  0.57178952  0.78306105    -0.76400
Al1857     Al  0.72189349  0.61723051  0.75348135     1.90100
O1858       O  0.69053091  0.56077742  0.72256819    -0.75500
O1859       O  0.76163747  0.57487539  0.70736090    -0.75400
O1860       O  0.71964030  0.56853273  0.64770967    -0.81000
O1861       O  0.78616245  0.61740268  0.70800818    -0.79200
O1862       O  0.73777055  0.60509893  0.71599910    -1.15400
O1863       O  0.77757947  0.65537216  0.72798848    -0.74600
C1864       C  0.77216019  0.65555210  0.77285216     0.96200
C1865       C  0.67926029  0.57367185  0.71225648     0.92600
Al1866     Al  0.72709964  0.57120630  0.71526713     1.55600
O1867       O  0.73025955  0.64852341  0.71417989    -0.79200
C1868       C  0.78358662  0.59519821  0.71361233     0.96700
C1869       C  0.72510725  0.58062938  0.81478506     0.91600
O1870       O  0.71125737  0.59035630  0.80220519    -0.84500
O1871       O  0.75222793  0.63665842  0.54125001    -0.84000
C1872       C  0.73413241  0.58376187  0.86512144     0.95400
O1873       O  0.75569956  0.60360466  0.87570892    -0.73100
O1874       O  0.74300915  0.63850633  0.89774204    -0.76700
Al1875     Al  0.76388381  0.62698570  0.92980159     1.49000
C1876       C  0.73838145  0.65404627  0.92060904     0.90700
O1877       O  0.69081219  0.59813352  0.96766670    -0.82900
O1878       O  0.73390193  0.57179416  0.53306003    -0.76400
Al1879     Al  0.72189096  0.61723515  0.50347789     1.90100
O1880       O  0.69053008  0.56077515  0.97256953    -0.75500
O1881       O  0.76163708  0.57487149  0.95736522    -0.75400
O1882       O  0.71964027  0.56852887  0.89771223    -0.81000
O1883       O  0.78616262  0.61739874  0.95801349    -0.79200
O1884       O  0.73777068  0.60509625  0.96600060    -1.15400
O1885       O  0.77758023  0.65537014  0.97798828    -0.74600
C1886       C  0.77215717  0.65555724  0.52284989     0.96200
C1887       C  0.67925980  0.57366974  0.96225589     0.92600
Al1888     Al  0.72709907  0.57120337  0.96527005     1.55600
O1889       O  0.73025948  0.64852016  0.96417623    -0.79200
C1890       C  0.78358671  0.59519404  0.96361573     0.96700
C1891       C  0.72510517  0.58063466  0.56478359     0.91600
O1892       O  0.71125541  0.59036193  0.55220397    -0.84500
O1893       O  0.57932535  0.55034051  0.61585500    -0.84000
C1894       C  0.59735230  0.51546665  0.79196335     0.95400
O1895       O  0.57578702  0.51373202  0.78136727    -0.73100
O1896       O  0.58850672  0.56133986  0.75937093    -0.76700
Al1897     Al  0.56762532  0.52894816  0.72728079     1.49000
C1898       C  0.59314832  0.58151828  0.73651748     0.90700
O1899       O  0.64073467  0.57314141  0.68947889    -0.82900
O1900       O  0.59755934  0.50371548  0.62402682    -0.76400
Al1901     Al  0.60965106  0.56120333  0.65364676     1.90100
O1902       O  0.64094035  0.53603181  0.68447119    -0.75500
O1903       O  0.56983612  0.47907197  0.69974042    -0.75400
O1904       O  0.61184115  0.51472304  0.75937768    -0.81000
O1905       O  0.54533983  0.49708822  0.69903181    -0.79200
O1906       O  0.59373687  0.53317428  0.69109220    -1.15400
O1907       O  0.55395199  0.54364945  0.67909836    -0.74600
C1908       C  0.55937688  0.54926447  0.63424122     0.96200
C1909       C  0.65224923  0.56019487  0.69483774     0.92600
Al1910     Al  0.60437340  0.50992989  0.69181595     1.55600
O1911       O  0.60131235  0.58414033  0.69297630    -0.79200
C1912       C  0.54790551  0.47745714  0.69341711     0.96700
C1913       C  0.60637536  0.52136267  0.59230541     0.91600
O1914       O  0.62024328  0.54494750  0.60488693    -0.84500
O1915       O  0.57932304  0.55033853  0.86585607    -0.84000
C1916       C  0.59735569  0.51546927  0.54196349     0.95400
O1917       O  0.57579072  0.51373531  0.53136862    -0.73100
O1918       O  0.58850834  0.56134129  0.50936298    -0.76700
Al1919     Al  0.56762406  0.52894443  0.97728044     1.49000
C1920       C  0.59314639  0.58151410  0.98651940     0.90700
O1921       O  0.64073382  0.57313934  0.93947743    -0.82900
O1922       O  0.59755767  0.50371303  0.87402605    -0.76400
Al1923     Al  0.60964926  0.56120102  0.90364669     1.90100
O1924       O  0.64093991  0.53603015  0.93446745    -0.75500
O1925       O  0.56983652  0.47906943  0.94974143    -0.75400
O1926       O  0.61184357  0.51472460  0.50937683    -0.81000
O1927       O  0.54533946  0.49708485  0.94902984    -0.79200
O1928       O  0.59373578  0.53317168  0.94109145    -1.15400
O1929       O  0.55394990  0.54364645  0.92909980    -0.74600
C1930       C  0.55937485  0.54926275  0.88424298     0.96200
C1931       C  0.65224866  0.56019298  0.94483565     0.92600
Al1932     Al  0.60437316  0.50992789  0.94181447     1.55600
O1933       O  0.60131076  0.58413721  0.94297838    -0.79200
C1934       C  0.54790571  0.47745396  0.94341719     0.96700
C1935       C  0.60637205  0.52136030  0.84230482     0.91600
O1936       O  0.62024032  0.54494522  0.85488561    -0.84500
O1937       O  0.63455092  0.75409729  0.94866679    -0.84000
C1938       C  0.58164340  0.73601494  0.62485268     0.95400
O1939       O  0.60148264  0.75758592  0.61425317    -0.73100
O1940       O  0.63643095  0.74497459  0.59217581    -0.76700
Al1941     Al  0.62485405  0.76579951  0.56011338     1.49000
C1942       C  0.65197079  0.74034526  0.56931001     0.90700
O1943       O  0.59602140  0.69270567  0.52239757    -0.82900
O1944       O  0.56964246  0.73575372  0.95691056    -0.76400
Al1945     Al  0.61511333  0.72377297  0.98650037     1.90100
O1946       O  0.55864832  0.69239122  0.51746820    -0.75500
O1947       O  0.57268711  0.76350031  0.53260322    -0.75400
O1948       O  0.56640311  0.72152519  0.59227175    -0.81000
O1949       O  0.61521196  0.78805500  0.53191938    -0.79200
O1950       O  0.60297065  0.73966696  0.52395512    -1.15400
O1951       O  0.65323197  0.77950937  0.51187898    -0.74600
C1952       C  0.65343654  0.77405283  0.96703724     0.96200
C1953       C  0.57155502  0.68114229  0.52786550     0.92600
Al1954     Al  0.56906290  0.72896856  0.52471242     1.55600
O1955       O  0.64642280  0.73218307  0.52577503    -0.79200
C1956       C  0.59299366  0.78546904  0.52639296     0.96700
C1957       C  0.57850690  0.72697604  0.92519498     0.91600
O1958       O  0.58823024  0.71312363  0.93778686    -0.84500
O1959       O  0.63455329  0.75411186  0.69866685    -0.84000
C1960       C  0.58164705  0.73600937  0.87485463     0.95400
O1961       O  0.60148892  0.75757948  0.86426116    -0.73100
O1962       O  0.63643465  0.74496752  0.84217138    -0.76700
Al1963     Al  0.62485974  0.76579702  0.81011949     1.49000
C1964       C  0.65197418  0.74033943  0.81930154     0.90700
O1965       O  0.59602441  0.69270590  0.77238663    -0.82900
O1966       O  0.56964566  0.73576447  0.70691187    -0.76400
Al1967     Al  0.61511768  0.72378565  0.73649727     1.90100
O1968       O  0.55865224  0.69239350  0.76746372    -0.75500
O1969       O  0.57269480  0.76350354  0.78260787    -0.75400
O1970       O  0.56640653  0.72152409  0.84227000    -0.81000
O1971       O  0.61521975  0.78805728  0.78193603    -0.79200
O1972       O  0.60297574  0.73966806  0.77395479    -1.15400
O1973       O  0.65323713  0.77950972  0.76188432    -0.74600
C1974       C  0.65343926  0.77406661  0.71703911     0.96200
C1975       C  0.57155832  0.68114381  0.77786044     0.92600
Al1976     Al  0.56906835  0.72897127  0.77471274     1.55600
O1977       O  0.64642656  0.73218145  0.77576432    -0.79200
C1978       C  0.59300214  0.78547210  0.77640178     0.96700
C1979       C  0.57850803  0.72698548  0.67519491     0.91600
O1980       O  0.58823363  0.71313507  0.68778561    -0.84500
O1981       O  0.54833960  0.58127747  0.62462275    -0.84000
C1982       C  0.51340672  0.59920586  0.94847739     0.95400
O1983       O  0.51172418  0.57766434  0.95906543    -0.73100
O1984       O  0.55933807  0.59044747  0.98111452    -0.76700
Al1985     Al  0.52694334  0.56953118  0.51318797     1.49000
C1986       C  0.57952003  0.59511101  0.50396070     0.90700
O1987       O  0.57106726  0.64265955  0.55090439    -0.82900
O1988       O  0.50164682  0.59942407  0.61642691    -0.76400
Al1989     Al  0.55916255  0.61158700  0.58679542     1.90100
O1990       O  0.53392946  0.64281694  0.55586211    -0.75500
O1991       O  0.47700066  0.57163592  0.54080729    -0.75400
O1992       O  0.51259833  0.61365417  0.98106499    -0.81000
O1993       O  0.49508243  0.54720105  0.54142521    -0.79200
O1994       O  0.53112734  0.59562941  0.54936189    -1.15400
O1995       O  0.54166992  0.55590038  0.56139875    -0.74600
C1996       C  0.54728189  0.56133554  0.60625325     0.96200
C1997       C  0.55809581  0.65414379  0.54545112     0.92600
Al1998     Al  0.50784158  0.60621565  0.54863007     1.55600
O1999       O  0.58213245  0.60327737  0.54749556    -0.79200
C2000       C  0.47542694  0.54972155  0.54710741     0.96700
C2001       C  0.51929662  0.60825041  0.64813844     0.91600
O2002       O  0.54287777  0.62215546  0.63554134    -0.84500
O2003       O  0.54833798  0.58127677  0.87462733    -0.84000
C2004       C  0.51340982  0.59921167  0.69847831     0.95400
O2005       O  0.51172566  0.57766993  0.70907025    -0.73100
O2006       O  0.55934034  0.59045239  0.73111399    -0.76700
Al2007     Al  0.52694770  0.56953571  0.76318645     1.49000
C2008       C  0.57952455  0.59511400  0.75397118     0.90700
O2009       O  0.57106996  0.64266176  0.80091222    -0.82900
O2010       O  0.50164670  0.59942462  0.86642622    -0.76400
Al2011     Al  0.55916324  0.61158798  0.83680225     1.90100
O2012       O  0.53393228  0.64281977  0.80586395    -0.75500
O2013       O  0.47700281  0.57163850  0.79080647    -0.75400
O2014       O  0.51260479  0.61366304  0.73106363    -0.81000
O2015       O  0.49508471  0.54720380  0.79141487    -0.79200
O2016       O  0.53112954  0.59563197  0.79936367    -1.15400
O2017       O  0.54167032  0.55590201  0.81140025    -0.74600
C2018       C  0.54728050  0.56133521  0.85625601     0.96200
C2019       C  0.55809877  0.65414600  0.79545304     0.92600
Al2020     Al  0.50784369  0.60621828  0.79863046     1.55600
O2021       O  0.58213497  0.60327862  0.79750694    -0.79200
C2022       C  0.47542950  0.54972404  0.79710335     0.96700
C2023       C  0.51929526  0.60824859  0.89813976     0.91600
O2024       O  0.54287662  0.62215544  0.88554562    -0.84500
O2025       O  0.69650529  0.78506481  0.70745208    -0.84000
C2026       C  0.74944865  0.82002813  0.53137904     0.95400
O2027       O  0.72962280  0.82176828  0.54198137    -0.73100
O2028       O  0.69473455  0.77415378  0.56394114    -0.76700
Al2029     Al  0.70623472  0.80652431  0.59606888     1.49000
C2030       C  0.67919874  0.75395713  0.58676581     0.90700
O2031       O  0.73521046  0.76232543  0.63385228    -0.82900
O2032       O  0.76143783  0.83175779  0.69932254    -0.76400
Al2033     Al  0.71601884  0.77425618  0.66965743     1.90100
O2034       O  0.77253310  0.79945529  0.63874893    -0.75500
O2035       O  0.75831474  0.85645599  0.62376715    -0.75400
O2036       O  0.76470094  0.82081307  0.56395996    -0.81000
O2037       O  0.71578681  0.83838501  0.62436952    -0.79200
O2038       O  0.72813461  0.80230175  0.63224411    -1.15400
O2039       O  0.67783927  0.79177982  0.64422457    -0.74600
C2040       C  0.67763235  0.78614510  0.68907088     0.96200
C2041       C  0.75968995  0.77526330  0.62852424     0.92600
Al2042     Al  0.76202747  0.82557258  0.63153238     1.55600
O2043       O  0.68474881  0.75131322  0.63028575    -0.79200
C2044       C  0.73797380  0.85804268  0.63008319     0.96700
C2045       C  0.75257427  0.81411396  0.73104133     0.91600
O2046       O  0.74285349  0.79052940  0.71846333    -0.84500
O2047       O  0.69650251  0.78504954  0.95744988    -0.84000
C2048       C  0.74945156  0.82002511  0.78138081     0.95400
O2049       O  0.72962482  0.82176340  0.79198487    -0.73100
O2050       O  0.69473800  0.77414699  0.81393697    -0.76700
Al2051     Al  0.70623547  0.80651566  0.84607009     1.49000
C2052       C  0.67920182  0.75394914  0.83675795     0.90700
O2053       O  0.73521270  0.76231720  0.88384846    -0.82900
O2054       O  0.76143628  0.83174722  0.94932345    -0.76400
Al2055     Al  0.71601901  0.77424507  0.91965384     1.90100
O2056       O  0.77253441  0.79944746  0.88875036    -0.75500
O2057       O  0.75831415  0.85644690  0.87376895    -0.75400
O2058       O  0.76470230  0.82080625  0.81396135    -0.81000
O2059       O  0.71578612  0.83837535  0.87437566    -0.79200
O2060       O  0.72813486  0.80229221  0.88224421    -1.15400
O2061       O  0.67783832  0.79176772  0.89422355    -0.74600
C2062       C  0.67763010  0.78613086  0.93906906     0.96200
C2063       C  0.75969227  0.77525587  0.87852339     0.92600
Al2064     Al  0.76202757  0.82556374  0.88153404     1.55600
O2065       O  0.68475095  0.75130288  0.88027724    -0.79200
C2066       C  0.73797327  0.85803377  0.88008468     0.96700
C2067       C  0.75257148  0.81410296  0.98104123     0.91600
O2068       O  0.74285193  0.79051846  0.96846291    -0.84500
O2069       O  0.78311786  0.69859437  0.53242450    -0.84000
C2070       C  0.81803931  0.75151798  0.70847000     0.95400
O2071       O  0.81978860  0.73170018  0.69787317    -0.73100
O2072       O  0.77216239  0.69682207  0.67593646    -0.76700
Al2073     Al  0.80453363  0.70830974  0.64381147     1.49000
C2074       C  0.75197241  0.68126884  0.65311557     0.90700
O2075       O  0.76031173  0.73724752  0.60597536    -0.82900
O2076       O  0.82976252  0.76350190  0.54052627    -0.76400
Al2077     Al  0.77226739  0.71807414  0.57019218     1.90100
O2078       O  0.79743887  0.77457728  0.60109450    -0.75500
O2079       O  0.85444490  0.76037127  0.61607324    -0.75400
O2080       O  0.81880886  0.76676019  0.67588513    -0.81000
O2081       O  0.83637708  0.71784644  0.61550523    -0.79200
O2082       O  0.80030760  0.73020045  0.60761663    -1.15400
O2083       O  0.78980255  0.67992293  0.59567879    -0.74600
C2084       C  0.78420616  0.67973186  0.55081826     0.96200
C2085       C  0.77324187  0.76172450  0.61130725     0.92600
Al2086     Al  0.82356919  0.76408723  0.60831432     1.55600
O2087       O  0.74932989  0.68679915  0.60957686    -0.79200
C2088       C  0.85602523  0.74002977  0.60975415     0.96700
C2089       C  0.81212053  0.75463804  0.50880509     0.91600
O2090       O  0.78853170  0.74490669  0.52138043    -0.84500
O2091       O  0.78312275  0.69858974  0.78242505    -0.84000
C2092       C  0.81804200  0.75151480  0.95847033     0.95400
O2093       O  0.81978712  0.73169412  0.94787838    -0.73100
O2094       O  0.77216191  0.69681762  0.92593497    -0.76700
Al2095     Al  0.80453434  0.70830382  0.89381576     1.49000
C2096       C  0.75197307  0.68126391  0.90311189     0.90700
O2097       O  0.76031474  0.73724108  0.85597416    -0.82900
O2098       O  0.82976461  0.76349523  0.79052541    -0.76400
Al2099     Al  0.77227069  0.71806869  0.82019121     1.90100
O2100       O  0.79744216  0.77457122  0.85109575    -0.75500
O2101       O  0.85444707  0.76036389  0.86606968    -0.75400
O2102       O  0.81881481  0.76675693  0.92588259    -0.81000
O2103       O  0.83637895  0.71783887  0.86551603    -0.79200
O2104       O  0.80031046  0.73019480  0.85761743    -1.15400
O2105       O  0.78980470  0.67991737  0.84568177    -0.74600
C2106       C  0.78420961  0.67972667  0.80082037     0.96200
C2107       C  0.77324487  0.76171793  0.86130720     0.92600
Al2108     Al  0.82357266  0.76408128  0.85831303     1.55600
O2109       O  0.74933243  0.68679336  0.85957194    -0.79200
C2110       C  0.85602673  0.74002163  0.85975771     0.96700
C2111       C  0.81212223  0.75463385  0.75880534     0.91600
O2112       O  0.78853379  0.74490187  0.77138186    -0.84500
O2113       O  0.90850758  0.69771222  0.66848296    -0.84000
C2114       C  0.92960894  0.75247157  0.49891216     0.95400
O2115       O  0.90732576  0.73402572  0.50963256    -0.73100
O2116       O  0.91982268  0.69753518  0.52529612    -0.76700
Al2117     Al  0.89931496  0.70902659  0.55966656     1.49000
C2118       C  0.92399360  0.68118835  0.54674910     0.90700
O2119       O  0.97314610  0.73648218  0.60734637    -0.82900
O2120       O  0.92879231  0.76248875  0.66636389    -0.76400
Al2121     Al  0.93983292  0.71639043  0.63532884     1.90100
O2122       O  0.97264269  0.77345044  0.61315062    -0.75500
O2123       O  0.90210283  0.76040495  0.58874657    -0.75400
O2124       O  0.94536655  0.76663124  0.53156044    -0.81000
O2125       O  0.87742336  0.71792804  0.59066370    -0.79200
O2126       O  0.92562237  0.72990693  0.59756932    -1.15400
O2127       O  0.88510623  0.67972662  0.60318035    -0.74600
C2128       C  0.88916133  0.67943390  0.64831897     0.96200
C2129       C  0.98493285  0.76094094  0.61402531     0.92600
Al2130     Al  0.93666505  0.76367669  0.59921997     1.55600
O2131       O  0.93188134  0.68587416  0.59105572    -0.79200
C2132       C  0.88008227  0.74010394  0.59606575     0.96700
C2133       C  0.93746993  0.75374661  0.69864786     0.91600
O2134       O  0.94905591  0.74148134  0.68733022    -0.84500
O2135       O  0.90851129  0.69770630  0.91848040    -0.84000
C2136       C  0.92960860  0.75246881  0.74891301     0.95400
O2137       O  0.90732677  0.73402086  0.75963372    -0.73100
O2138       O  0.91982915  0.69753368  0.77529426    -0.76700
Al2139     Al  0.89931867  0.70902153  0.80966564     1.49000
C2140       C  0.92400052  0.68118685  0.79674614     0.90700
O2141       O  0.97315102  0.73648241  0.85735130    -0.82900
O2142       O  0.92879212  0.76248349  0.91636305    -0.76400
Al2143     Al  0.93983690  0.71638738  0.88532943     1.90100
O2144       O  0.97264371  0.77344867  0.86315317    -0.75500
O2145       O  0.90210280  0.76039709  0.83874590    -0.75400
O2146       O  0.94536715  0.76662736  0.78156117    -0.81000
O2147       O  0.87742498  0.71791990  0.84066498    -0.79200
O2148       O  0.92562529  0.72990264  0.84756952    -1.15400
O2149       O  0.88511172  0.67972099  0.85317595    -0.74600
C2150       C  0.88916543  0.67942837  0.89831486     0.96200
C2151       C  0.98493576  0.76094124  0.86403012     0.92600
Al2152     Al  0.93666560  0.76367183  0.84922045     1.55600
O2153       O  0.93188841  0.68587245  0.84105302    -0.79200
C2154       C  0.88008310  0.74009555  0.84606717     0.96700
C2155       C  0.93746984  0.75374245  0.94864855     0.91600
O2156       O  0.94905583  0.74147669  0.93733348    -0.84500
O2157       O  0.08944908  0.78860483  0.57118072    -0.84000
C2158       C  0.06813843  0.82205682  0.74064995     0.95400
O2159       O  0.09044034  0.82596774  0.72994215    -0.73100
O2160       O  0.07799337  0.77695936  0.71437335    -0.76700
Al2161     Al  0.09848787  0.80898375  0.67999696     1.49000
C2162       C  0.07386488  0.75644725  0.69293454     0.90700
O2163       O  0.02475854  0.76241040  0.63214810    -0.82900
O2164       O  0.06893083  0.83285794  0.57319189    -0.76400
Al2165     Al  0.05807953  0.77578256  0.60423650     1.90100
O2166       O  0.02509558  0.79980733  0.62640147    -0.75500
O2167       O  0.09565319  0.85754212  0.65077797    -0.75400
O2168       O  0.05236500  0.82039900  0.70799128    -0.81000
O2169       O  0.12035262  0.83977749  0.64900886    -0.79200
O2170       O  0.07218756  0.80349803  0.64202830    -1.15400
O2171       O  0.11275482  0.79393149  0.63657316    -0.74600
C2172       C  0.10874788  0.78962139  0.59141694     0.96200
C2173       C  0.01289026  0.77498974  0.62548896     0.92600
Al2174     Al  0.06107247  0.82615458  0.64032988     1.55600
O2175       O  0.06607453  0.75326655  0.64856134    -0.79200
C2176       C  0.11770318  0.85929591  0.64361212     0.96700
C2177       C  0.06028904  0.81543958  0.54090511     0.91600
O2178       O  0.04878881  0.79158270  0.55221450    -0.84500
O2179       O  0.08945221  0.78861286  0.82118334    -0.84000
C2180       C  0.06814045  0.82205825  0.99065269     0.95400
O2181       O  0.09044298  0.82597101  0.97994519    -0.73100
O2182       O  0.07799809  0.77696337  0.96437500    -0.76700
Al2183     Al  0.09849158  0.80898890  0.92999968     1.49000
C2184       C  0.07386845  0.75645117  0.94293476     0.90700
O2185       O  0.02476284  0.76241455  0.88215350    -0.82900
O2186       O  0.06893289  0.83286306  0.82319454    -0.76400
Al2187     Al  0.05808301  0.77578824  0.85423947     1.90100
O2188       O  0.02509742  0.79981022  0.87640578    -0.75500
O2189       O  0.09565559  0.85754778  0.90078446    -0.75400
O2190       O  0.05236734  0.82040198  0.95799485    -0.81000
O2191       O  0.12035620  0.83978437  0.89901460    -0.79200
O2192       O  0.07219087  0.80350325  0.89203174    -1.15400
O2193       O  0.11275847  0.79393721  0.88657409    -0.74600
C2194       C  0.10874969  0.78962619  0.84141845     0.96200
C2195       C  0.01289321  0.77499240  0.87549430     0.92600
Al2196     Al  0.06107481  0.82615898  0.89033410     1.55600
O2197       O  0.06607880  0.75327197  0.89856136    -0.79200
C2198       C  0.11770667  0.85930313  0.89362283     0.96700
C2199       C  0.06028950  0.81544415  0.79090822     0.91600
O2200       O  0.04879021  0.79158757  0.80221920    -0.84500
O2201       O  0.96857973  0.54693012  0.75254950    -0.84000
C2202       C  0.91386801  0.51334290  0.58291277     0.95400
O2203       O  0.93234259  0.50956254  0.59360379    -0.73100
O2204       O  0.96877336  0.55857987  0.60935526    -0.76700
Al2205     Al  0.95733040  0.52656278  0.64363809     1.49000
C2206       C  0.98515939  0.57907599  0.63083318     0.90700
O2207       O  0.92996118  0.57288084  0.69130946    -0.82900
O2208       O  0.90384480  0.50248949  0.75037899    -0.76400
Al2209     Al  0.94996650  0.55963847  0.71938685     1.90100
O2210       O  0.89292975  0.53542038  0.69708956    -0.75500
O2211       O  0.90598508  0.47789539  0.67277634    -0.75400
O2212       O  0.89970420  0.51490607  0.61557699    -0.81000
O2213       O  0.94847827  0.49578277  0.67452265    -0.79200
O2214       O  0.93644104  0.53192463  0.68158685    -1.15400
O2215       O  0.98661554  0.54164974  0.68718432    -0.74600
C2216       C  0.98688128  0.54592740  0.73235236     0.96200
C2217       C  0.90549675  0.56023723  0.69787545     0.92600
Al2218     Al  0.90267355  0.50917661  0.68323031     1.55600
O2219       O  0.98052113  0.58223512  0.67519122    -0.79200
C2220       C  0.92632532  0.47622545  0.67991181     0.96700
C2221       C  0.91256657  0.51991367  0.78265685     0.91600
O2222       O  0.92482169  0.54376958  0.77132420    -0.84500
O2223       O  0.96858382  0.54693749  0.50254293    -0.84000
C2224       C  0.91386999  0.51334213  0.83291318     0.95400
O2225       O  0.93234715  0.50956514  0.84359995    -0.73100
O2226       O  0.96877531  0.55858393  0.85935402    -0.76700
Al2227     Al  0.95733674  0.52656628  0.89363118     1.49000
C2228       C  0.98516293  0.57907868  0.88083345     0.90700
O2229       O  0.92996840  0.57288224  0.94132654    -0.82900
O2230       O  0.90384684  0.50249431  0.50037735    -0.76400
Al2231     Al  0.94997470  0.55963787  0.96939202     1.90100
O2232       O  0.89293717  0.53542082  0.94709740    -0.75500
O2233       O  0.90599443  0.47789871  0.92277485    -0.75400
O2234       O  0.89970903  0.51490733  0.86558069    -0.81000
O2235       O  0.94848802  0.49578663  0.92451246    -0.79200
O2236       O  0.93644814  0.53192609  0.93158686    -1.15400
O2237       O  0.98662428  0.54165337  0.93717180    -0.74600
C2238       C  0.98689052  0.54592708  0.98234146     0.96200
C2239       C  0.90550366  0.56023761  0.94788906     0.92600
Al2240     Al  0.90268110  0.50917776  0.93323231     1.55600
O2241       O  0.98052706  0.58223639  0.92519393    -0.79200
C2242       C  0.92633536  0.47623001  0.92990961     0.96700
C2243       C  0.91256911  0.51991769  0.53265627     0.91600
O2244       O  0.92482660  0.54377411  0.52132570    -0.84500
O2245       O  0.87829710  0.63735740  0.65434963    -0.84000
C2246       C  0.84467927  0.58265199  0.82405082     0.95400
O2247       O  0.84092120  0.60114114  0.81336167    -0.73100
O2248       O  0.88992446  0.63759259  0.79754635    -0.76700
Al2249     Al  0.85789471  0.62611213  0.76327846     1.49000
C2250       C  0.91041405  0.65397897  0.77604588     0.90700
O2251       O  0.90419594  0.59869814  0.71566254    -0.82900
O2252       O  0.83380701  0.57262242  0.65658872    -0.76400
Al2253     Al  0.89097669  0.61872871  0.68755726     1.90100
O2254       O  0.86671778  0.56168788  0.70986366    -0.75500
O2255       O  0.80923261  0.57474433  0.73423746    -0.75400
O2256       O  0.84623658  0.56848503  0.79138825    -0.81000
O2257       O  0.82710174  0.61722894  0.73241619    -0.79200
O2258       O  0.86325763  0.60521687  0.72535928    -1.15400
O2259       O  0.87295981  0.65537831  0.71967589    -0.74600
C2260       C  0.87725903  0.65564552  0.67451534     0.96200
C2261       C  0.89153274  0.57423322  0.70908992     0.92600
Al2262     Al  0.84050081  0.57144752  0.72374042     1.55600
O2263       O  0.91358266  0.64930405  0.73171637    -0.79200
C2264       C  0.80755289  0.59506865  0.72706245     0.96700
C2265       C  0.85123541  0.58134108  0.62430892     0.91600
O2266       O  0.87509416  0.59357872  0.63564123    -0.84500
O2267       O  0.87829943  0.63735193  0.90434839    -0.84000
C2268       C  0.84467248  0.58265371  0.57404962     0.95400
O2269       O  0.84091380  0.60114216  0.56335823    -0.73100
O2270       O  0.88991809  0.63759394  0.54754863    -0.76700
Al2271     Al  0.85788976  0.62611326  0.51327647     1.49000
C2272       C  0.91040810  0.65398054  0.52604950     0.90700
O2273       O  0.90419998  0.59869736  0.96567274    -0.82900
O2274       O  0.83381174  0.57261868  0.90658905    -0.76400
Al2275     Al  0.89098001  0.61872583  0.93756075     1.90100
O2276       O  0.86672283  0.56168607  0.95987114    -0.75500
O2277       O  0.80923429  0.57474029  0.98423530    -0.75400
O2278       O  0.84623126  0.56848680  0.54138886    -0.81000
O2279       O  0.82710267  0.61722473  0.98241279    -0.79200
O2280       O  0.86326011  0.60521412  0.97536063    -1.15400
O2281       O  0.87296031  0.65537423  0.96967101    -0.74600
C2282       C  0.87726110  0.65564049  0.92451135     0.96200
C2283       C  0.89153797  0.57423234  0.95910114     0.92600
Al2284     Al  0.84050400  0.57144457  0.97374226     1.55600
O2285       O  0.91358459  0.64930348  0.98171742    -0.79200
C2286       C  0.80755373  0.59506432  0.97706162     0.96700
C2287       C  0.85124095  0.58133723  0.87431068     0.91600
O2288       O  0.87509939  0.59357394  0.88564591    -0.84500
O2289       O  0.11943874  0.75829750  0.58556512    -0.84000
C2290       C  0.15293051  0.73698427  0.91610517     0.95400
O2291       O  0.15686049  0.75928866  0.92681025    -0.73100
O2292       O  0.10787083  0.74684771  0.94238108    -0.76700
Al2293     Al  0.13987852  0.76733874  0.97674327     1.49000
C2294       C  0.08738150  0.74279657  0.96379676     0.90700
O2295       O  0.09329594  0.69357820  0.52462688    -0.82900
O2296       O  0.16373990  0.73779096  0.58356458    -0.76400
Al2297     Al  0.10665013  0.72692991  0.55250382     1.90100
O2298       O  0.13072837  0.69397923  0.53037932    -0.75500
O2299       O  0.18841322  0.76448352  0.50594425    -0.75400
O2300       O  0.15126854  0.72121100  0.94876652    -0.81000
O2301       O  0.17066280  0.78919362  0.50772062    -0.79200
O2302       O  0.13438373  0.74104313  0.51473285    -1.15400
O2303       O  0.12486439  0.78162627  0.52015576    -0.74600
C2304       C  0.12057021  0.77764801  0.56531813     0.96200
C2305       C  0.10591400  0.68174092  0.53128216     0.92600
Al2306     Al  0.15704160  0.72992938  0.51643003     1.55600
O2307       O  0.08415081  0.73495659  0.50814596    -0.79200
C2308       C  0.19017096  0.78652932  0.51310209     0.96700
C2309       C  0.14631582  0.72914490  0.61585088     0.91600
O2310       O  0.12245444  0.71765441  0.60454618    -0.84500
O2311       O  0.11943147  0.75829546  0.83556609    -0.84000
C2312       C  0.15293337  0.73698600  0.66610734     0.95400
O2313       O  0.15686079  0.75928955  0.67681226    -0.73100
O2314       O  0.10787090  0.74684892  0.69238232    -0.76700
Al2315     Al  0.13987870  0.76733939  0.72674585     1.49000
C2316       C  0.08738065  0.74279570  0.71379738     0.90700
O2317       O  0.09329132  0.69357631  0.77462503    -0.82900
O2318       O  0.16373496  0.73779013  0.83356217    -0.76400
Al2319     Al  0.10664445  0.72692814  0.80250360     1.90100
O2320       O  0.13072462  0.69397902  0.78037493    -0.75500
O2321       O  0.18840769  0.76448482  0.75594444    -0.75400
O2322       O  0.15127086  0.72121257  0.69876879    -0.81000
O2323       O  0.17065662  0.78919428  0.75772063    -0.79200
O2324       O  0.13437819  0.74104273  0.76473259    -1.15400
O2325       O  0.12485892  0.78162506  0.77015661    -0.74600
C2326       C  0.12056643  0.77764778  0.81531920     0.96200
C2327       C  0.10591028  0.68173953  0.78127676     0.92600
Al2328     Al  0.15703689  0.72992994  0.76642829     1.55600
O2329       O  0.08414444  0.73495470  0.75814703    -0.79200
C2330       C  0.19016500  0.78653048  0.76310197     0.96700
C2331       C  0.14631137  0.72914324  0.86584905     0.91600
O2332       O  0.12244974  0.71765288  0.85454546    -0.84500
O2333       O  0.02893487  0.57722130  0.98830196    -0.84000
C2334       C  0.08371258  0.59852504  0.65782977     0.95400
O2335       O  0.06532273  0.57621507  0.64711550    -0.73100
O2336       O  0.02874676  0.58860121  0.63148617    -0.76700
Al2337     Al  0.04029472  0.56814155  0.59712389     1.49000
C2338       C  0.01234436  0.59269617  0.61004872     0.90700
O2339       O  0.06747905  0.64191232  0.54935080    -0.82900
O2340       O  0.09374832  0.59775389  0.99037407    -0.76400
Al2341     Al  0.04750210  0.60858032  0.52141194     1.90100
O2342       O  0.10453337  0.64156272  0.54360325    -0.75500
O2343       O  0.09173229  0.57106730  0.56796171    -0.75400
O2344       O  0.09783547  0.61430373  0.62517599    -0.81000
O2345       O  0.04925934  0.54629908  0.56613123    -0.79200
O2346       O  0.06111039  0.59446367  0.55918569    -1.15400
O2347       O  0.01098031  0.55385593  0.55365831    -0.74600
C2348       C  0.01067741  0.55787593  0.50850792     0.96200
C2349       C  0.09194190  0.65377683  0.54270790     0.92600
Al2350     Al  0.09489744  0.60560725  0.55751584     1.55600
O2351       O  0.01697105  0.60053940  0.56571121    -0.79200
C2352       C  0.07145679  0.54900794  0.56071615     0.96700
C2353       C  0.08495872  0.60637900  0.95808533     0.91600
O2354       O  0.07261084  0.61788138  0.96939367    -0.84500
O2355       O  0.02892551  0.57722222  0.73831109    -0.84000
C2356       C  0.08371719  0.59852667  0.90782759     0.95400
O2357       O  0.06532625  0.57621673  0.89711638    -0.73100
O2358       O  0.02874994  0.58860317  0.88148512    -0.76700
Al2359     Al  0.04029631  0.56814092  0.84712655     1.49000
C2360       C  0.01234692  0.59269703  0.86004684     0.90700
O2361       O  0.06747611  0.64190864  0.79933734    -0.82900
O2362       O  0.09374055  0.59775085  0.74037580    -0.76400
Al2363     Al  0.04749989  0.60857456  0.77140630     1.90100
O2364       O  0.10453171  0.64156130  0.79359489    -0.75500
O2365       O  0.09173340  0.57106638  0.81795986    -0.75400
O2366       O  0.09783767  0.61430475  0.87517093    -0.81000
O2367       O  0.04926034  0.54629692  0.81613637    -0.79200
O2368       O  0.06111035  0.59446122  0.80918325    -1.15400
O2369       O  0.01097912  0.55385219  0.80366499    -0.74600
C2370       C  0.01067446  0.55786907  0.75851355     0.96200
C2371       C  0.09193912  0.65377444  0.79269745     0.92600
Al2372     Al  0.09489757  0.60560594  0.80751153     1.55600
O2373       O  0.01697125  0.60053636  0.81570717    -0.79200
C2374       C  0.07145792  0.54900649  0.81071658     0.96700
C2375       C  0.08495133  0.60637608  0.70808714     0.91600
O2376       O  0.07260285  0.61787813  0.71939431    -0.84500
O2377       O  0.78624095  0.09149431  0.66859125    -0.84000
C2378       C  0.81974668  0.07020846  0.49913911     0.95400
O2379       O  0.82368685  0.09251796  0.50985177    -0.73100
O2380       O  0.77468992  0.08009246  0.52541448    -0.76700
Al2381     Al  0.80670620  0.10057125  0.55980158     1.49000
C2382       C  0.75417787  0.07597798  0.54683810     0.90700
O2383       O  0.76010344  0.02677830  0.60765607    -0.82900
O2384       O  0.83055734  0.07100523  0.66659524    -0.76400
Al2385     Al  0.77346326  0.06013116  0.63553228     1.90100
O2386       O  0.79752366  0.02716284  0.61340511    -0.75500
O2387       O  0.85525448  0.09772258  0.58900905    -0.75400
O2388       O  0.81809246  0.05443660  0.53179700    -0.81000
O2389       O  0.83751365  0.12243913  0.59080857    -0.79200
O2390       O  0.80119883  0.07425888  0.59776507    -1.15400
O2391       O  0.79165588  0.11483881  0.60321504    -0.74600
C2392       C  0.78732562  0.11082653  0.64836286     0.96200
C2393       C  0.77270413  0.01492589  0.61431381     0.92600
Al2394     Al  0.82385800  0.06314535  0.59946167     1.55600
O2395       O  0.75095746  0.06813300  0.59117984    -0.79200
C2396       C  0.85702702  0.11977607  0.59620398     0.96700
C2397       C  0.81313586  0.06236938  0.69888390     0.91600
O2398       O  0.78927426  0.05086669  0.68757811    -0.84500
O2399       O  0.78622035  0.09148499  0.91858198    -0.84000
C2400       C  0.81975765  0.07021648  0.74914417     0.95400
O2401       O  0.82369245  0.09252376  0.75986003    -0.73100
O2402       O  0.77468968  0.08008912  0.77540205    -0.76700
Al2403     Al  0.80670127  0.10056978  0.80980230     1.49000
C2404       C  0.75417390  0.07596933  0.79681842     0.90700
O2405       O  0.76010304  0.02677112  0.85764781    -0.82900
O2406       O  0.83055036  0.07100626  0.91659815    -0.76400
Al2407     Al  0.77345415  0.06012360  0.88552182     1.90100
O2408       O  0.79752578  0.02716255  0.86340889    -0.75500
O2409       O  0.85524935  0.09772625  0.83901768    -0.75400
O2410       O  0.81809733  0.05444126  0.78180059    -0.81000
O2411       O  0.83750408  0.12243893  0.84082405    -0.79200
O2412       O  0.80119329  0.07425644  0.84776364    -1.15400
O2413       O  0.79164174  0.11483173  0.85320654    -0.74600
C2414       C  0.78730781  0.11081835  0.89835297     0.96200
C2415       C  0.77270629  0.01492220  0.86431625     0.92600
Al2416     Al  0.82385615  0.06314728  0.84946612     1.55600
O2417       O  0.75094897  0.06811998  0.84115770    -0.79200
C2418       C  0.85701904  0.11977807  0.84621668     0.96700
C2419       C  0.81312748  0.06236907  0.94888360     0.91600
O2420       O  0.78926598  0.05086543  0.93757576    -0.84500
O2421       O  0.69554872  0.91040828  0.57142043    -0.84000
C2422       C  0.75035300  0.93164113  0.74089357     0.95400
O2423       O  0.73195544  0.90933531  0.73017364    -0.73100
O2424       O  0.69537956  0.92174277  0.71460715    -0.76700
Al2425     Al  0.70692192  0.90128560  0.68019935     1.49000
C2426       C  0.67900177  0.92588328  0.69318283     0.90700
O2427       O  0.73422486  0.97510946  0.63240819    -0.82900
O2428       O  0.76037064  0.93085461  0.57344046    -0.76400
Al2429     Al  0.71417808  0.94175798  0.60451116     1.90100
O2430       O  0.77124246  0.97469402  0.62664007    -0.75500
O2431       O  0.75833381  0.90415535  0.65101501    -0.75400
O2432       O  0.76448997  0.94741410  0.70824139    -0.81000
O2433       O  0.71585819  0.87943028  0.64916476    -0.79200
O2434       O  0.72775889  0.92761029  0.64226644    -1.15400
O2435       O  0.67760168  0.88703144  0.63676347    -0.74600
C2436       C  0.67728788  0.89106430  0.59162481     0.96200
C2437       C  0.75868990  0.98694671  0.62574347     0.92600
Al2438     Al  0.76154283  0.93871558  0.64057535     1.55600
O2439       O  0.68365832  0.93375782  0.64885889    -0.79200
C2440       C  0.73804353  0.88211200  0.64373742     0.96700
C2441       C  0.75158972  0.93948902  0.54115364     0.91600
O2442       O  0.73925974  0.95101109  0.55246427    -0.84500
O2443       O  0.69555256  0.91041081  0.82142339    -0.84000
C2444       C  0.75034984  0.93162947  0.99089417     0.95400
O2445       O  0.73195544  0.90932285  0.98016914    -0.73100
O2446       O  0.69537949  0.92173143  0.96461365    -0.76700
Al2447     Al  0.70692244  0.90127728  0.93019644     1.49000
C2448       C  0.67900293  0.92587506  0.94319272     0.90700
O2449       O  0.73422968  0.97510620  0.88242729    -0.82900
O2450       O  0.76037332  0.93085302  0.82344123    -0.76400
Al2451     Al  0.71418189  0.94175702  0.85452187     1.90100
O2452       O  0.77124655  0.97469038  0.87664938    -0.75500
O2453       O  0.75833385  0.90414755  0.90101249    -0.75400
O2454       O  0.76448909  0.94740423  0.95824619    -0.81000
O2455       O  0.71585825  0.87942364  0.89915327    -0.79200
O2456       O  0.72776076  0.92760510  0.89226994    -1.15400
O2457       O  0.67760372  0.88702796  0.88675981    -0.74600
C2458       C  0.67729156  0.89106507  0.84162291     0.96200
C2459       C  0.75869421  0.98694345  0.87575553     0.92600
Al2460     Al  0.76154450  0.93870970  0.89057889     1.55600
O2461       O  0.68366138  0.93375426  0.89887141    -0.79200
C2462       C  0.73804347  0.88210432  0.89373245     0.96700
C2463       C  0.75159444  0.93949161  0.79115781     0.91600
O2464       O  0.73926411  0.95101273  0.80247374    -0.84500
O2465       O  0.63521001  0.88019821  0.58570964    -0.84000
C2466       C  0.58044334  0.84661282  0.91614841     0.95400
O2467       O  0.59888712  0.84278656  0.92684720    -0.73100
O2468       O  0.63539301  0.89179550  0.94251960    -0.76700
Al2469     Al  0.62389604  0.85977916  0.97684624     1.49000
C2470       C  0.65180055  0.91229099  0.96397688     0.90700
O2471       O  0.59656152  0.90618596  0.52461470    -0.82900
O2472       O  0.57042866  0.83577698  0.58361332    -0.76400
Al2473     Al  0.61659200  0.89291660  0.55258736     1.90100
O2474       O  0.55953202  0.86873107  0.53041276    -0.75500
O2475       O  0.57251908  0.81115749  0.50596686    -0.75400
O2476       O  0.56629534  0.84821139  0.94880839    -0.81000
O2477       O  0.61500595  0.82900611  0.50776516    -0.79200
O2478       O  0.60303089  0.86519558  0.51480280    -1.15400
O2479       O  0.65319165  0.87485258  0.52033803    -0.74600
C2480       C  0.65348477  0.87915386  0.56549579     0.96200
C2481       C  0.57209836  0.89354696  0.53128014     0.92600
Al2482     Al  0.56925375  0.84247115  0.51647179     1.55600
O2483       O  0.64714786  0.91548788  0.50831522    -0.79200
C2484       C  0.59284333  0.80945440  0.51307984     0.96700
C2485       C  0.57917154  0.85320151  0.61589394     0.91600
O2486       O  0.59147521  0.87705928  0.60457369    -0.84500
O2487       O  0.63521559  0.88020237  0.83570510    -0.84000
C2488       C  0.58044245  0.84661696  0.66615255     0.95400
O2489       O  0.59888778  0.84279265  0.67684922    -0.73100
O2490       O  0.63539254  0.89180356  0.69251432    -0.76700
Al2491     Al  0.62389973  0.85978872  0.72684325     1.49000
C2492       C  0.65180031  0.91229993  0.71396910     0.90700
O2493       O  0.59656372  0.90618580  0.77461045    -0.82900
O2494       O  0.57043432  0.83577673  0.83360752    -0.76400
Al2495     Al  0.61659618  0.89291848  0.80258336     1.90100
O2496       O  0.55953572  0.86872994  0.78040941    -0.75500
O2497       O  0.57252809  0.81115956  0.75596283    -0.75400
O2498       O  0.56629746  0.84821918  0.69881423    -0.81000
O2499       O  0.61501488  0.82900911  0.75776427    -0.79200
O2500       O  0.60303734  0.86519776  0.76479920    -1.15400
O2501       O  0.65319827  0.87485682  0.77033450    -0.74600
C2502       C  0.65349002  0.87915716  0.81549200     0.96200
C2503       C  0.57210067  0.89354588  0.78127603     0.92600
Al2504     Al  0.56926043  0.84247196  0.76646759     1.55600
O2505       O  0.64715180  0.91549169  0.75831049    -0.79200
C2506       C  0.59285245  0.80945729  0.76308122     0.96700
C2507       C  0.57917551  0.85320023  0.86588968     0.91600
O2508       O  0.59147942  0.87705858  0.85457141    -0.84500
O2509       O  0.54485696  0.97066489  0.98822422    -0.84000
C2510       C  0.51122009  0.91594162  0.65781416     0.95400
O2511       O  0.50741250  0.93439714  0.64710447    -0.73100
O2512       O  0.55644092  0.97088037  0.63141488    -0.76700
Al2513     Al  0.52442130  0.95939625  0.59707491     1.49000
C2514       C  0.57696275  0.98723577  0.60994338     0.90700
O2515       O  0.57078407  0.93199147  0.54936287    -0.82900
O2516       O  0.50037424  0.90591579  0.99035761    -0.76400
Al2517     Al  0.55754113  0.95203517  0.52136921     1.90100
O2518       O  0.53330935  0.89498806  0.54358012    -0.75500
O2519       O  0.47577226  0.90802954  0.56798860    -0.75400
O2520       O  0.51281078  0.90178787  0.62516140    -0.81000
O2521       O  0.49362019  0.95051061  0.56611844    -0.79200
O2522       O  0.52981755  0.93851245  0.55915727    -1.15400
O2523       O  0.53953198  0.98869383  0.55355633    -0.74600
C2524       C  0.54385380  0.98897132  0.50840857     0.96200
C2525       C  0.55812802  0.90753346  0.54270796     0.92600
Al2526     Al  0.50707053  0.90474460  0.55750695     1.55600
O2527       O  0.58013625  0.98256482  0.56561278    -0.79200
C2528       C  0.47407107  0.92834278  0.56076259     0.96700
C2529       C  0.51779815  0.91465290  0.95807066     0.91600
O2530       O  0.54165869  0.92691848  0.96938687    -0.84500
O2531       O  0.54485895  0.97067128  0.73822651    -0.84000
C2532       C  0.51121805  0.91593735  0.90780956     0.95400
O2533       O  0.50741113  0.93439336  0.89709935    -0.73100
O2534       O  0.55643934  0.97087820  0.88140933    -0.76700
Al2535     Al  0.52441980  0.95939309  0.84706869     1.49000
C2536       C  0.57696150  0.98723356  0.85993843     0.90700
O2537       O  0.57078442  0.93198968  0.79935779    -0.82900
O2538       O  0.50037650  0.90592091  0.74035972    -0.76400
Al2539     Al  0.55754194  0.95203423  0.77136438     1.90100
O2540       O  0.53331039  0.89498592  0.79357400    -0.75500
O2541       O  0.47577159  0.90802559  0.81798141    -0.75400
O2542       O  0.51281038  0.90178472  0.87515626    -0.81000
O2543       O  0.49361853  0.95050640  0.81611054    -0.79200
O2544       O  0.52981750  0.93851039  0.80915143    -1.15400
O2545       O  0.53952990  0.98869133  0.80355088    -0.74600
C2546       C  0.54385361  0.98897139  0.75840341     0.96200
C2547       C  0.55812902  0.90753161  0.79270251     0.92600
Al2548     Al  0.50707091  0.90474203  0.80750114     1.55600
O2549       O  0.58013598  0.98256267  0.81560868    -0.79200
C2550       C  0.47406974  0.92833835  0.81075403     0.96700
C2551       C  0.51780073  0.91465790  0.70807408     0.91600
O2552       O  0.54166122  0.92692453  0.71939078    -0.84500
O2553       O  0.57516416  0.03102197  0.75239139    -0.84000
C2554       C  0.59629865  0.08575187  0.58276039     0.95400
O2555       O  0.57401880  0.06729741  0.59346264    -0.73100
O2556       O  0.58652567  0.03083108  0.60919952    -0.76700
Al2557     Al  0.56599989  0.04231014  0.64351319     1.49000
C2558       C  0.59061970  0.01443912  0.63066587     0.90700
O2559       O  0.63979131  0.06971354  0.69115250    -0.82900
O2560       O  0.59548719  0.09578149  0.75022279    -0.76400
Al2561     Al  0.60649203  0.04966414  0.71920768     1.90100
O2562       O  0.63934264  0.10671481  0.69693603    -0.75500
O2563       O  0.56876753  0.09366836  0.67264492    -0.75400
O2564       O  0.61204074  0.09991602  0.61541885    -0.81000
O2565       O  0.54409427  0.05118847  0.67444141    -0.79200
O2566       O  0.59229420  0.06318882  0.68143567    -1.15400
O2567       O  0.55177594  0.01303645  0.68706333    -0.74600
C2568       C  0.55580445  0.01275827  0.73221815     0.96200
C2569       C  0.65161541  0.09418215  0.69771050     0.92600
Al2570     Al  0.60334643  0.09695704  0.68307792     1.55600
O2571       O  0.59849029  0.01910678  0.67498543    -0.79200
C2572       C  0.54674210  0.07335218  0.67987594     0.96700
C2573       C  0.60416853  0.08704353  0.78250214     0.91600
O2574       O  0.61576634  0.07479116  0.77117091    -0.84500
O2575       O  0.57516913  0.03101859  0.50239153    -0.84000
C2576       C  0.59628912  0.08574851  0.83276146     0.95400
O2577       O  0.57401031  0.06729064  0.84346069    -0.73100
O2578       O  0.58652144  0.03082763  0.85919488    -0.76700
Al2579     Al  0.56599340  0.04230301  0.89351083     1.49000
C2580       C  0.59061782  0.01443691  0.88065961     0.90700
O2581       O  0.63978650  0.06971510  0.94114123    -0.82900
O2582       O  0.59549088  0.09577786  0.50021940    -0.76400
Al2583     Al  0.60648939  0.04966145  0.96920036     1.90100
O2584       O  0.63933246  0.10671331  0.94693488    -0.75500
O2585       O  0.56875471  0.09365730  0.92264849    -0.75400
O2586       O  0.61202914  0.09991322  0.86542139    -0.81000
O2587       O  0.54408477  0.05117711  0.92444171    -0.79200
O2588       O  0.59228710  0.06318332  0.93143269    -1.15400
O2589       O  0.55177307  0.01302961  0.93706116    -0.74600
C2590       C  0.55580339  0.01275180  0.98221540     0.96200
C2591       C  0.65160765  0.09418312  0.94770654     0.92600
Al2592     Al  0.60333508  0.09695074  0.93307864     1.55600
O2593       O  0.59849007  0.01910535  0.92497778    -0.79200
C2594       C  0.54673077  0.07333977  0.92988088     0.96700
C2595       C  0.60417480  0.08704272  0.53249948     0.91600
O2596       O  0.61577027  0.07478790  0.52116903    -0.84500
O2597       O  0.75610946  0.12167355  0.65426938    -0.84000
C2598       C  0.73489626  0.15519239  0.82384853     0.95400
O2599       O  0.75717926  0.15904144  0.81315901    -0.73100
O2600       O  0.74468530  0.11005306  0.79746195    -0.76700
Al2601     Al  0.76521102  0.14207783  0.76314593     1.49000
C2602       C  0.74058751  0.08956037  0.77600461     0.90700
O2603       O  0.69146119  0.09560320  0.71543198    -0.82900
O2604       O  0.73571318  0.16602594  0.65638470    -0.76400
Al2605     Al  0.72476193  0.10891621  0.68740881     1.90100
O2606       O  0.69185526  0.13302871  0.70965709    -0.75500
O2607       O  0.76244431  0.19067446  0.73398034    -0.75400
O2608       O  0.71915090  0.15358871  0.79118190    -0.81000
O2609       O  0.78711258  0.17287614  0.73223188    -0.79200
O2610       O  0.73892496  0.13663904  0.72519349    -1.15400
O2611       O  0.77945284  0.12703975  0.71963894    -0.74600
C2612       C  0.77543871  0.12273464  0.67448120     0.96200
C2613       C  0.67961039  0.10821043  0.70887358     0.92600
Al2614     Al  0.72785370  0.15933180  0.72352749     1.55600
O2615       O  0.73276350  0.08637188  0.73165482    -0.79200
C2616       C  0.78448406  0.19240523  0.72685169     0.96700
C2617       C  0.72703536  0.14860276  0.62410655     0.91600
O2618       O  0.71546960  0.12474586  0.63543599    -0.84500
O2619       O  0.75609435  0.12166942  0.90426308    -0.84000
C2620       C  0.73490275  0.15519808  0.57384811     0.95400
O2621       O  0.75718756  0.15905493  0.56314975    -0.73100
O2622       O  0.74469331  0.11006451  0.54747377    -0.76700
Al2623     Al  0.76521409  0.14208465  0.51314142     1.49000
C2624       C  0.74059137  0.08956867  0.52602337     0.90700
O2625       O  0.69145221  0.09560606  0.96544339    -0.82900
O2626       O  0.73570280  0.16602625  0.90638228    -0.76400
Al2627     Al  0.72475005  0.10891603  0.93741150     1.90100
O2628       O  0.69184581  0.13303084  0.95965881    -0.75500
O2629       O  0.76243584  0.19067801  0.98397967    -0.75400
O2630       O  0.71915284  0.15359073  0.54118754    -0.81000
O2631       O  0.78710371  0.17287962  0.98221744    -0.79200
O2632       O  0.73891626  0.13664071  0.97519129    -1.15400
O2633       O  0.77944384  0.12704133  0.96962617    -0.74600
C2634       C  0.77542460  0.12273073  0.92447054     0.96200
C2635       C  0.67960137  0.10821257  0.95887797     0.92600
Al2636     Al  0.72784473  0.15933364  0.97352762     1.55600
O2637       O  0.73275374  0.08637278  0.98165701    -0.79200
C2638       C  0.78447594  0.19240990  0.97684831     0.96700
C2639       C  0.72702450  0.14860129  0.87410654     0.91600
O2640       O  0.71545547  0.12474487  0.88544034    -0.84500
O2641       O  0.42301850  0.45499897  0.98826553    -0.84000
C2642       C  0.40184536  0.48857970  0.65780618     0.95400
O2643       O  0.42412893  0.49243635  0.64709326    -0.73100
O2644       O  0.41162465  0.44343386  0.63145305    -0.76700
Al2645     Al  0.43214185  0.47544523  0.59709714     1.49000
C2646       C  0.40750383  0.42293206  0.60999881     0.90700
O2647       O  0.35834675  0.42899447  0.54931801    -0.82900
O2648       O  0.40266327  0.49939960  0.99035629    -0.76400
Al2649     Al  0.39167219  0.44227776  0.52137919     1.90100
O2650       O  0.35881794  0.46645567  0.54355445    -0.75500
O2651       O  0.42934320  0.52401241  0.56798018    -0.75400
O2652       O  0.38607993  0.48694911  0.62515258    -0.81000
O2653       O  0.45402278  0.50622686  0.56611746    -0.79200
O2654       O  0.40584451  0.46999953  0.55916076    -1.15400
O2655       O  0.44637469  0.46038474  0.55361215    -0.74600
C2656       C  0.44235584  0.45608030  0.50845683     0.96200
C2657       C  0.34654550  0.44164634  0.54265533     0.92600
Al2658     Al  0.39478613  0.49270348  0.55749458     1.55600
O2659       O  0.39964498  0.41972868  0.56566897    -0.79200
C2660       C  0.45136459  0.52573788  0.56071382     0.96700
C2661       C  0.39399134  0.48197928  0.95806798     0.91600
O2662       O  0.38243231  0.45812064  0.96937670    -0.84500
O2663       O  0.42302427  0.45501038  0.73826506    -0.84000
C2664       C  0.40184732  0.48857544  0.90780835     0.95400
O2665       O  0.42413195  0.49243454  0.89709687    -0.73100
O2666       O  0.41163057  0.44343369  0.88145086    -0.76700
Al2667     Al  0.43214699  0.47544659  0.84709818     1.49000
C2668       C  0.40750947  0.42293234  0.85999443     0.90700
O2669       O  0.35835322  0.42899488  0.79931649    -0.82900
O2670       O  0.40266408  0.49940679  0.74035464    -0.76400
Al2671     Al  0.39167862  0.44228069  0.77137705     1.90100
O2672       O  0.35882282  0.46645559  0.79355805    -0.75500
O2673       O  0.42934652  0.52401371  0.81798372    -0.75400
O2674       O  0.38608325  0.48694714  0.87515436    -0.81000
O2675       O  0.45402757  0.50622990  0.81612136    -0.79200
O2676       O  0.40584966  0.47000110  0.80916150    -1.15400
O2677       O  0.44638088  0.46038834  0.80361082    -0.74600
C2678       C  0.44236197  0.45608524  0.75845520     0.96200
C2679       C  0.34655124  0.44164633  0.79265821     0.92600
Al2680     Al  0.39479004  0.49270402  0.80749769     1.55600
O2681       O  0.39965241  0.41973101  0.81566353    -0.79200
C2682       C  0.45136813  0.52574012  0.81071522     0.96700
C2683       C  0.39399151  0.48198570  0.70806733     0.91600
O2684       O  0.38243508  0.45812752  0.71937784    -0.84500
O2685       O  0.24205650  0.36470883  0.58558129    -0.84000
C2686       C  0.26335322  0.41948344  0.91606795     0.95400
O2687       O  0.24104730  0.40108314  0.92677437    -0.73100
O2688       O  0.25346869  0.36453122  0.94240243    -0.76700
Al2689     Al  0.23298199  0.37605692  0.97675319     1.49000
C2690       C  0.25757212  0.34813469  0.96383920     0.90700
O2691       O  0.30672374  0.40325467  0.52452174    -0.82900
O2692       O  0.26255378  0.42949690  0.58352226    -0.76400
Al2693     Al  0.27340839  0.38328151  0.55248190     1.90100
O2694       O  0.30637963  0.44030807  0.53030698    -0.75500
O2695       O  0.23584138  0.42746382  0.50591306    -0.75400
O2696       O  0.27912402  0.43361023  0.94872693    -0.81000
O2697       O  0.21111079  0.38498987  0.50772441    -0.79200
O2698       O  0.25928500  0.39687926  0.51470707    -1.15400
O2699       O  0.21870498  0.34674621  0.52021510    -0.74600
C2700       C  0.22272300  0.34644320  0.56536565     0.96200
C2701       C  0.31858912  0.42770987  0.53119348     0.92600
Al2702     Al  0.27040962  0.43065897  0.51638213     1.55600
O2703       O  0.26538559  0.35275176  0.50818458    -0.79200
C2704       C  0.21377860  0.40717032  0.51306995     0.96700
C2705       C  0.27120337  0.42072864  0.61580661     0.91600
O2706       O  0.28271202  0.40838741  0.60449196    -0.84500
O2707       O  0.24205949  0.36470980  0.83558177    -0.84000
C2708       C  0.26335417  0.41948413  0.66606670     0.95400
O2709       O  0.24104892  0.40108364  0.67677579    -0.73100
O2710       O  0.25346959  0.36453014  0.69239891    -0.76700
Al2711     Al  0.23298535  0.37605807  0.72675417     1.49000
C2712       C  0.25757532  0.34813468  0.71383438     0.90700
O2713       O  0.30672931  0.40325454  0.77453114    -0.82900
O2714       O  0.26255862  0.42949824  0.83352220    -0.76400
Al2715     Al  0.27341305  0.38328228  0.80248681     1.90100
O2716       O  0.30638597  0.44030857  0.78031156    -0.75500
O2717       O  0.23584903  0.42746624  0.75591050    -0.75400
O2718       O  0.27912668  0.43361121  0.69872350    -0.81000
O2719       O  0.21111808  0.38499231  0.75771715    -0.79200
O2720       O  0.25929198  0.39688109  0.76470814    -1.15400
O2721       O  0.21871142  0.34674841  0.77021158    -0.74600
C2722       C  0.22272628  0.34644509  0.81536350     0.96200
C2723       C  0.31859489  0.42770987  0.78119992     0.92600
Al2724     Al  0.27041695  0.43066076  0.76638287     1.55600
O2725       O  0.26539187  0.35275304  0.75818952    -0.79200
C2726       C  0.21378601  0.40717272  0.76306571     0.96700
C2727       C  0.27120549  0.42072866  0.86580908     0.91600
O2728       O  0.28271497  0.40838783  0.85449729    -0.84500
O2729       O  0.45325384  0.42491035  0.75245251    -0.84000
C2730       C  0.48686479  0.40382868  0.58282385     0.95400
O2731       O  0.49064335  0.42608389  0.59351645    -0.73100
O2732       O  0.44162190  0.41349168  0.60925495    -0.76700
Al2733     Al  0.47364320  0.43406000  0.64355504     1.49000
C2734       C  0.42112150  0.40935770  0.63074097     0.90700
O2735       O  0.42732999  0.36031876  0.69124784    -0.82900
O2736       O  0.49771863  0.40466717  0.75028220    -0.76400
Al2737     Al  0.44055684  0.39358566  0.71929311     1.90100
O2738       O  0.46481047  0.36081350  0.69703107    -0.75500
O2739       O  0.52228442  0.43137229  0.67264746    -0.75400
O2740       O  0.48528824  0.38809279  0.61548582    -0.81000
O2741       O  0.50441631  0.45597883  0.67446402    -0.79200
O2742       O  0.46827104  0.40779580  0.68149059    -1.15400
O2743       O  0.45856246  0.44824891  0.68710488    -0.74600
C2744       C  0.45427691  0.44422522  0.73226898     0.96200
C2745       C  0.43999702  0.34853176  0.69784865     0.92600
Al2746     Al  0.49102364  0.39679466  0.68313432     1.55600
O2747       O  0.41795525  0.40152665  0.67508408    -0.79200
C2748       C  0.52395566  0.45336917  0.67986716     0.96700
C2749       C  0.48029299  0.39595539  0.78256572     0.91600
O2750       O  0.45643379  0.38434124  0.77124237    -0.84500
O2751       O  0.45325205  0.42490814  0.50245518    -0.84000
C2752       C  0.48686513  0.40382575  0.83282356     0.95400
O2753       O  0.49064644  0.42608167  0.84351875    -0.73100
O2754       O  0.44162463  0.41348813  0.85925327    -0.76700
Al2755     Al  0.47364467  0.43405672  0.89355598     1.49000
C2756       C  0.42112432  0.40935534  0.88073764     0.90700
O2757       O  0.42733070  0.36031609  0.94124739    -0.82900
O2758       O  0.49771978  0.40466810  0.50028415    -0.76400
Al2759     Al  0.44055778  0.39358249  0.96929254     1.90100
O2760       O  0.46481088  0.36081025  0.94703233    -0.75500
O2761       O  0.52228531  0.43136885  0.92264778    -0.75400
O2762       O  0.48528818  0.38808900  0.86548451    -0.81000
O2763       O  0.50441653  0.45597487  0.92446767    -0.79200
O2764       O  0.46827208  0.40779230  0.93149094    -1.15400
O2765       O  0.45856211  0.44824488  0.93710521    -0.74600
C2766       C  0.45427602  0.44422038  0.98226919     0.96200
C2767       C  0.43999746  0.34852909  0.94785052     0.92600
Al2768     Al  0.49102435  0.39679101  0.93313475     1.55600
O2769       O  0.41795693  0.40152411  0.92508103    -0.79200
C2770       C  0.52395617  0.45336555  0.92986883     0.96700
C2771       C  0.48029389  0.39595674  0.53256728     0.91600
O2772       O  0.45643475  0.38434065  0.52124401    -0.84500
O2773       O  0.36297799  0.24415967  0.65450264    -0.84000
C2774       C  0.41769856  0.26532011  0.82414151     0.95400
O2775       O  0.39923107  0.24304813  0.81344787    -0.73100
O2776       O  0.36274917  0.25555218  0.79770038    -0.76700
Al2777     Al  0.37424095  0.23502437  0.76339697     1.49000
C2778       C  0.34638102  0.25968222  0.77621895     0.90700
O2779       O  0.40158744  0.30873801  0.71575881    -0.82900
O2780       O  0.42772961  0.26450753  0.65667866    -0.76400
Al2781     Al  0.38158944  0.27548297  0.68767566     1.90100
O2782       O  0.43862246  0.30834545  0.70995063    -0.75500
O2783       O  0.42562619  0.23779003  0.73428517    -0.75400
O2784       O  0.43186076  0.28106159  0.79147887    -0.81000
O2785       O  0.38313849  0.21312751  0.73249130    -0.79200
O2786       O  0.39512287  0.26130492  0.72546815    -1.15400
O2787       O  0.34495181  0.22080088  0.71984085    -0.74600
C2788       C  0.34467451  0.22484031  0.67468593     0.96200
C2789       C  0.42604758  0.32057697  0.70914973     0.92600
Al2790     Al  0.42889869  0.27236499  0.72382610     1.55600
O2791       O  0.35103735  0.26749994  0.73187220    -0.79200
C2792       C  0.40530485  0.21576253  0.72709683     0.96700
C2793       C  0.41899497  0.27319217  0.62439792     0.91600
O2794       O  0.40673115  0.28477699  0.63572732    -0.84500
O2795       O  0.36298037  0.24416047  0.90450342    -0.84000
C2796       C  0.41769943  0.26531942  0.57413990     0.95400
O2797       O  0.39923315  0.24304668  0.56344592    -0.73100
O2798       O  0.36274902  0.25554669  0.54770063    -0.76700
Al2799     Al  0.37424315  0.23502197  0.51339444     1.49000
C2800       C  0.34638108  0.25967732  0.52622043     0.90700
O2801       O  0.40158788  0.30873652  0.96576763    -0.82900
O2802       O  0.42773010  0.26450662  0.90668102    -0.76400
Al2803     Al  0.38159023  0.27548242  0.93768026     1.90100
O2804       O  0.43862270  0.30834375  0.95995448    -0.75500
O2805       O  0.42562900  0.23779085  0.98429300    -0.75400
O2806       O  0.43186252  0.28106116  0.54147850    -0.81000
O2807       O  0.38314147  0.21312783  0.98249453    -0.79200
O2808       O  0.39512326  0.26130374  0.97547178    -1.15400
O2809       O  0.34495304  0.22079882  0.96983820    -0.74600
C2810       C  0.34467615  0.22484081  0.92468410     0.96200
C2811       C  0.42604784  0.32057518  0.95915544     0.92600
Al2812     Al  0.42889943  0.27236432  0.97383024     1.55600
O2813       O  0.35103572  0.26749688  0.98187476    -0.79200
C2814       C  0.40530825  0.21576296  0.97710689     0.96700
C2815       C  0.41899593  0.27319257  0.87440111     0.91600
O2816       O  0.40673329  0.28477832  0.88573295    -0.84500
O2817       O  0.21190885  0.30439186  0.57124303    -0.84000
C2818       C  0.17840712  0.24960184  0.74072133     0.95400
O2819       O  0.17449822  0.26798850  0.73001352    -0.73100
O2820       O  0.22350943  0.30453290  0.71442220    -0.76700
Al2821     Al  0.19149715  0.29302563  0.68006750     1.49000
C2822       C  0.24400924  0.32095890  0.69299151     0.90700
O2823       O  0.23805370  0.26584422  0.63221050    -0.82900
O2824       O  0.16760117  0.23958556  0.57326429    -0.76400
Al2825     Al  0.22469843  0.28582207  0.60430560     1.90100
O2826       O  0.20062823  0.22878194  0.62649481    -0.75500
O2827       O  0.14292141  0.24164398  0.65080553    -0.75400
O2828       O  0.18004306  0.23547869  0.70806219    -0.81000
O2829       O  0.16070969  0.28411990  0.64909260    -0.79200
O2830       O  0.19697022  0.27220973  0.64208783    -1.15400
O2831       O  0.20655242  0.32234223  0.63664348    -0.74600
C2832       C  0.21083942  0.32264456  0.59148039     0.96200
C2833       C  0.22545074  0.24137990  0.62560500     0.92600
Al2834     Al  0.17429491  0.23843162  0.64039596     1.55600
O2835       O  0.24721929  0.31635372  0.64863284    -0.79200
C2836       C  0.14118566  0.26194985  0.64364521     0.96700
C2837       C  0.18502014  0.24836553  0.54097565     0.91600
O2838       O  0.20888160  0.26072364  0.55228205    -0.84500
O2839       O  0.21190821  0.30439290  0.82124327    -0.84000
C2840       C  0.17840225  0.24960225  0.99072086     0.95400
O2841       O  0.17449426  0.26798960  0.98001309    -0.73100
O2842       O  0.22350485  0.30453454  0.96442416    -0.76700
Al2843     Al  0.19149343  0.29302683  0.93006658     1.49000
C2844       C  0.24400541  0.32096015  0.94299523     0.90700
O2845       O  0.23805367  0.26584977  0.88222312    -0.82900
O2846       O  0.16760382  0.23958849  0.82326188    -0.76400
Al2847     Al  0.22469827  0.28582499  0.85431095     1.90100
O2848       O  0.20062949  0.22878646  0.87650027    -0.75500
O2849       O  0.14291915  0.24164360  0.90080186    -0.75400
O2850       O  0.18003935  0.23547984  0.95806181    -0.81000
O2851       O  0.16070597  0.28411949  0.89909003    -0.79200
O2852       O  0.19696836  0.27221176  0.89208927    -1.15400
O2853       O  0.20654954  0.32234382  0.88664078    -0.74600
C2854       C  0.21083905  0.32264625  0.84147837     0.96200
C2855       C  0.22545206  0.24138580  0.87561544     0.92600
Al2856     Al  0.17429415  0.23843358  0.89039549     1.55600
O2857       O  0.24721626  0.31635631  0.89863686    -0.79200
C2858       C  0.14118206  0.26194890  0.89364540     0.96700
C2859       C  0.18502498  0.24836784  0.79097700     0.91600
O2860       O  0.20888555  0.26072588  0.80228844    -0.84500
O2861       O  0.30262644  0.21408945  0.66871229    -0.84000
C2862       C  0.24783856  0.18048333  0.49917331     0.95400
O2863       O  0.26625811  0.17661994  0.50988665    -0.73100
O2864       O  0.30278332  0.22561373  0.52553229    -0.76700
Al2865     Al  0.29127369  0.19360922  0.55988859     1.49000
C2866       C  0.31918378  0.24611745  0.54697264     0.90700
O2867       O  0.26394670  0.24007634  0.60764121    -0.82900
O2868       O  0.23781846  0.16966223  0.66662869    -0.76400
Al2869     Al  0.28399425  0.22679336  0.63558647     1.90100
O2870       O  0.22693126  0.20261345  0.61340293    -0.75500
O2871       O  0.23987749  0.14502515  0.58902454    -0.75400
O2872       O  0.23369962  0.18210233  0.53182683    -0.81000
O2873       O  0.28235628  0.16281554  0.59086363    -0.79200
O2874       O  0.27042657  0.19905967  0.59782208    -1.15400
O2875       O  0.32057871  0.20867501  0.60337012    -0.74600
C2876       C  0.32087845  0.21299327  0.64852012     0.96200
C2877       C  0.23947717  0.22742699  0.61426470     0.92600
Al2878     Al  0.23664706  0.17635290  0.59948780     1.55600
O2879       O  0.31453191  0.24933706  0.59129186    -0.79200
C2880       C  0.26017502  0.14329177  0.59624391     0.96700
C2881       C  0.24658221  0.18708598  0.69890953     0.91600
O2882       O  0.25889312  0.21094435  0.68759019    -0.84500
O2883       O  0.30262899  0.21409404  0.91871279    -0.84000
C2884       C  0.24783924  0.18049098  0.74917272     0.95400
O2885       O  0.26625760  0.17662637  0.75988849    -0.73100
O2886       O  0.30278260  0.22562084  0.77553315    -0.76700
Al2887     Al  0.29127356  0.19361644  0.80988928     1.49000
C2888       C  0.31918412  0.24612408  0.79697343     0.90700
O2889       O  0.26394948  0.24008489  0.85765455    -0.82900
O2890       O  0.23781647  0.16966820  0.91662656    -0.76400
Al2891     Al  0.28399676  0.22679978  0.88559224     1.90100
O2892       O  0.22693355  0.20262181  0.86340581    -0.75500
O2893       O  0.23987680  0.14503421  0.83902318    -0.75400
O2894       O  0.23370183  0.18211346  0.78182542    -0.81000
O2895       O  0.28235553  0.16282364  0.84086687    -0.79200
O2896       O  0.27042746  0.19906752  0.84782437    -1.15400
O2897       O  0.32057987  0.20868169  0.85336720    -0.74600
C2898       C  0.32088008  0.21299731  0.89851820     0.96200
C2899       C  0.23947972  0.22743492  0.86427451     0.92600
Al2900     Al  0.23664763  0.17636184  0.84948729     1.55600
O2901       O  0.31453350  0.24934378  0.84129392    -0.79200
C2902       C  0.26017379  0.14330101  0.84625055     0.96700
C2903       C  0.24658208  0.18708955  0.94891153     0.91600
O2904       O  0.25889667  0.21094886  0.93759810    -0.84500
O2905       O  0.91256528  0.21689347  0.53224947    -0.84000
C2906       C  0.93056088  0.18197599  0.70835468     0.95400
O2907       O  0.90898592  0.18022035  0.69774682    -0.73100
O2908       O  0.92166835  0.22781353  0.67575802    -0.76700
Al2909     Al  0.90081888  0.19542569  0.64363416     1.49000
C2910       C  0.92634368  0.24800871  0.65292545     0.90700
O2911       O  0.97402613  0.23969942  0.60589302    -0.82900
O2912       O  0.93082914  0.17024623  0.54041377    -0.76400
Al2913     Al  0.94289429  0.22773076  0.57006359     1.90100
O2914       O  0.97424927  0.20260209  0.60100770    -0.75500
O2915       O  0.90300394  0.14551713  0.61599309    -0.75400
O2916       O  0.94503791  0.18120689  0.67577829    -0.81000
O2917       O  0.87851651  0.16353664  0.61535554    -0.79200
O2918       O  0.92696262  0.19968173  0.60748037    -1.15400
O2919       O  0.88715432  0.21014035  0.59545252    -0.74600
C2920       C  0.89260481  0.21580353  0.55061803     0.96200
C2921       C  0.98558434  0.22679225  0.61126022     0.92600
Al2922     Al  0.93760756  0.17644095  0.60820868     1.55600
O2923       O  0.93454888  0.25065286  0.60941291    -0.79200
C2924       C  0.88105257  0.14388635  0.60971855     0.96700
C2925       C  0.93960127  0.18789025  0.50869474     0.91600
O2926       O  0.95347271  0.21147648  0.52127420    -0.84500
O2927       O  0.91255794  0.21688918  0.78225365    -0.84000
C2928       C  0.93055361  0.18197656  0.95835856     0.95400
O2929       O  0.90898039  0.18022543  0.94775441    -0.73100
O2930       O  0.92166339  0.22781744  0.92575979    -0.76700
Al2931     Al  0.90081245  0.19542820  0.89364136     1.49000
C2932       C  0.92633672  0.24801117  0.90292457     0.90700
O2933       O  0.97401926  0.23970068  0.85589731    -0.82900
O2934       O  0.93082255  0.17024772  0.79041588    -0.76400
Al2935     Al  0.94288722  0.22773052  0.82006688     1.90100
O2936       O  0.97424130  0.20260244  0.85101381    -0.75500
O2937       O  0.90299574  0.14551899  0.86599527    -0.75400
O2938       O  0.94502863  0.18120523  0.92578083    -0.81000
O2939       O  0.87850783  0.16353812  0.86537063    -0.79200
O2940       O  0.92695533  0.19968234  0.85748550    -1.15400
O2941       O  0.88714755  0.21013976  0.84545704    -0.74600
C2942       C  0.89259723  0.21579905  0.80062129     0.96200
C2943       C  0.98557732  0.22679314  0.86126337     0.92600
Al2944     Al  0.93759931  0.17644133  0.85821219     1.55600
O2945       O  0.93454015  0.25065338  0.85941109    -0.79200
C2946       C  0.88104395  0.14388826  0.85972951     0.96700
C2947       C  0.93960009  0.18789191  0.75869699     0.91600
O2948       O  0.95346895  0.21147792  0.77127884    -0.84500
O2949       O  0.08566411  0.30360019  0.70759812    -0.84000
C2950       C  0.06771029  0.25066788  0.53148318     0.95400
O2951       O  0.08928523  0.27050502  0.54209762    -0.73100
O2952       O  0.07664109  0.30543858  0.56408992    -0.76700
Al2953     Al  0.09746052  0.29387955  0.59623670     1.49000
C2954       C  0.07192645  0.32092710  0.58692569     0.90700
O2955       O  0.02422031  0.26484237  0.63389058    -0.82900
O2956       O  0.06745719  0.23866844  0.69942102    -0.76400
Al2957     Al  0.05534890  0.28405620  0.66974958     1.90100
O2958       O  0.02402775  0.22754238  0.63886608    -0.75500
O2959       O  0.09524069  0.24175590  0.62378481    -0.75400
O2960       O  0.05322786  0.23541058  0.56405694    -0.81000
O2961       O  0.11974654  0.28427435  0.62453961    -0.79200
O2962       O  0.07130313  0.27196733  0.63235590    -1.15400
O2963       O  0.11111651  0.32226739  0.64444219    -0.74600
C2964       C  0.10563423  0.32248730  0.68925682     0.96200
C2965       C  0.01267740  0.24036468  0.62856338     0.92600
Al2966     Al  0.06066253  0.23807057  0.63162255     1.55600
O2967       O  0.06368037  0.31532394  0.63040609    -0.79200
C2968       C  0.11719108  0.26207192  0.63011954     0.96700
C2969       C  0.05867877  0.24753274  0.73113399     0.91600
O2970       O  0.04479115  0.25722050  0.71854523    -0.84500
O2971       O  0.08565762  0.30359809  0.95760032    -0.84000
C2972       C  0.06771291  0.25066686  0.78148469     0.95400
O2973       O  0.08928687  0.27050354  0.79210458    -0.73100
O2974       O  0.07664003  0.30543641  0.81408998    -0.76700
Al2975     Al  0.09745787  0.29387765  0.84624234     1.49000
C2976       C  0.07192702  0.32092670  0.83692335     0.90700
O2977       O  0.02421545  0.26484294  0.88388727    -0.82900
O2978       O  0.06744794  0.23866526  0.94942256    -0.76400
Al2979     Al  0.05534362  0.28405553  0.91974828     1.90100
O2980       O  0.02402155  0.22754214  0.88886102    -0.75500
O2981       O  0.09523570  0.24175399  0.87379095    -0.75400
O2982       O  0.05322605  0.23541054  0.81405546    -0.81000
O2983       O  0.11974159  0.28427250  0.87455115    -0.79200
O2984       O  0.07129826  0.27196574  0.88235755    -1.15400
O2985       O  0.11111196  0.32226505  0.89444697    -0.74600
C2986       C  0.10562885  0.32248460  0.93926092     0.96200
C2987       C  0.01267143  0.24036509  0.87856146     0.92600
Al2988     Al  0.06065672  0.23806899  0.88162313     1.55600
O2989       O  0.06367833  0.31532403  0.88040257    -0.79200
C2990       C  0.11718631  0.26207001  0.88012636     0.96700
C2991       C  0.05867008  0.24753058  0.98113453     0.91600
O2992       O  0.04478355  0.25721945  0.96854436    -0.84500
O2993       O  0.03004927  0.45196653  0.62452692    -0.84000
C2994       C  0.08295571  0.48697099  0.94840458     0.95400
O2995       O  0.06309891  0.48865862  0.95900621    -0.73100
O2996       O  0.02824543  0.44103921  0.98102270    -0.76700
Al2997     Al  0.03972375  0.47341425  0.51312629     1.49000
C2998       C  0.01272625  0.42084058  0.50386047     0.90700
O2999       O  0.06878924  0.42929015  0.55084082    -0.82900
O3000       O  0.09495336  0.49871546  0.61634947    -0.76400
Al3001     Al  0.04958039  0.44119039  0.58669935     1.90100
O3002       O  0.10609486  0.46643595  0.55570025    -0.75500
O3003       O  0.09177981  0.52339246  0.54081948    -0.75400
O3004       O  0.09822564  0.48779520  0.98098386    -0.81000
O3005       O  0.04924728  0.50527529  0.54139723    -0.79200
O3006       O  0.06165582  0.46923215  0.54928147    -1.15400
O3007       O  0.01134591  0.45865295  0.56132378    -0.74600
C3008       C  0.01115506  0.45301542  0.60616560     0.96200
C3009       C  0.09326331  0.44224610  0.54542415     0.92600
Al3010     Al  0.09554234  0.49253566  0.54855175     1.55600
O3011       O  0.01830101  0.41821419  0.54737187    -0.79200
C3012       C  0.07142152  0.52495116  0.54710538     0.96700
C3013       C  0.08610121  0.48107122  0.64806441     0.91600
O3014       O  0.07642552  0.45749304  0.63547739    -0.84500
O3015       O  0.03005347  0.45196872  0.87453022    -0.84000
C3016       C  0.08295068  0.48696988  0.69840186     0.95400
O3017       O  0.06309195  0.48865420  0.70900149    -0.73100
O3018       O  0.02824089  0.44103610  0.73102392    -0.76700
Al3019     Al  0.03972517  0.47341170  0.76312636     1.49000
C3020       C  0.01272550  0.42083786  0.75386843     0.90700
O3021       O  0.06879153  0.42928824  0.80084543    -0.82900
O3022       O  0.09495567  0.49871539  0.86634984    -0.76400
Al3023     Al  0.04958291  0.44119008  0.83670357     1.90100
O3024       O  0.10609689  0.46643473  0.80570132    -0.75500
O3025       O  0.09178151  0.52339129  0.79081843    -0.75400
O3026       O  0.09822161  0.48779719  0.73098179    -0.81000
O3027       O  0.04924917  0.50527432  0.79139133    -0.79200
O3028       O  0.06165782  0.46923080  0.79928258    -1.15400
O3029       O  0.01134927  0.45865369  0.81132643    -0.74600
C3030       C  0.01115954  0.45301825  0.85616902     0.96200
C3031       C  0.09326576  0.44224452  0.79542748     0.92600
Al3032     Al  0.09554414  0.49253441  0.79855156     1.55600
O3033       O  0.01830117  0.41821257  0.79737995    -0.79200
C3034       C  0.07142314  0.52495005  0.79710261     0.96700
C3035       C  0.08610471  0.48107174  0.89806608     0.91600
O3036       O  0.07642924  0.45749349  0.88547984    -0.84500
O3037       O  0.11662049  0.36555765  0.94889561    -0.84000
C3038       C  0.15158072  0.41848282  0.62505676     0.95400
O3039       O  0.15329087  0.39863980  0.61445383    -0.73100
O3040       O  0.10570520  0.36370984  0.59239889    -0.76700
Al3041     Al  0.13810091  0.37527519  0.56030262     1.49000
C3042       C  0.08551880  0.34817495  0.56954726     0.90700
O3043       O  0.09388281  0.40424452  0.52264818    -0.82900
O3044       O  0.16333474  0.43049586  0.95711391    -0.76400
Al3045     Al  0.10582112  0.38506600  0.98675744     1.90100
O3046       O  0.13099811  0.44157515  0.51772339    -0.75500
O3047       O  0.18804307  0.42740082  0.53271645    -0.75400
O3048       O  0.15237545  0.43373945  0.59247793    -0.81000
O3049       O  0.16999874  0.38488185  0.53206956    -0.79200
O3050       O  0.13387028  0.39717817  0.52416679    -1.15400
O3051       O  0.12339160  0.34690346  0.51206709    -0.74600
C3052       C  0.11771739  0.34668583  0.96724143     0.96200
C3053       C  0.10681236  0.42872018  0.52803577     0.92600
Al3054     Al  0.15713603  0.43107895  0.52491175     1.55600
O3055       O  0.08287159  0.35376499  0.52606121    -0.79200
C3056       C  0.18966354  0.40707738  0.52648065     0.96700
C3057       C  0.14568472  0.42162295  0.92540230     0.91600
O3058       O  0.12210096  0.41192285  0.93799540    -0.84500
O3059       O  0.11662331  0.36556014  0.69889310    -0.84000
C3060       C  0.15158464  0.41848145  0.87505868     0.95400
O3061       O  0.15329583  0.39863903  0.86445570    -0.73100
O3062       O  0.10571089  0.36370752  0.84239802    -0.76700
Al3063     Al  0.13810761  0.37527544  0.81030285     1.49000
C3064       C  0.08552399  0.34817452  0.81954504     0.90700
O3065       O  0.09388736  0.40424363  0.77264942    -0.82900
O3066       O  0.16333452  0.43049918  0.70711025    -0.76400
Al3067     Al  0.10582322  0.38506747  0.73675842     1.90100
O3068       O  0.13100209  0.44157488  0.76772862    -0.75500
O3069       O  0.18804954  0.42740250  0.78271497    -0.75400
O3070       O  0.15238083  0.43373890  0.84248019    -0.81000
O3071       O  0.17000648  0.38488374  0.78207094    -0.79200
O3072       O  0.13387639  0.39717862  0.77416767    -1.15400
O3073       O  0.12340020  0.34690500  0.76206614    -0.74600
C3074       C  0.11772207  0.34668891  0.71723735     0.96200
C3075       C  0.10681601  0.42871920  0.77803921     0.92600
Al3076     Al  0.15714139  0.43107961  0.77491352     1.55600
O3077       O  0.08287832  0.35376529  0.77605891    -0.79200
C3078       C  0.18967072  0.40707936  0.77647934     0.96700
C3079       C  0.14568320  0.42162555  0.67540109     0.91600
O3080       O  0.12210003  0.41192483  0.68799766    -0.84500
O3081       O  0.96809329  0.42093239  0.61577770    -0.84000
C3082       C  0.91515404  0.40283876  0.79189231     0.95400
O3083       O  0.93497056  0.42442543  0.78128004    -0.73100
O3084       O  0.96994541  0.41182809  0.75928687    -0.76700
Al3085     Al  0.95836040  0.43263122  0.72717145     1.49000
C3086       C  0.98548760  0.40719325  0.73644022     0.90700
O3087       O  0.92949989  0.35947651  0.68941629    -0.82900
O3088       O  0.90316132  0.40257983  0.62395972    -0.76400
Al3089     Al  0.94863482  0.39059904  0.65358880     1.90100
O3090       O  0.89214570  0.35919512  0.68445580    -0.75500
O3091       O  0.90619659  0.43030449  0.69965244    -0.75400
O3092       O  0.89992308  0.38832869  0.75931659    -0.81000
O3093       O  0.94871814  0.45486932  0.69890138    -0.79200
O3094       O  0.93648513  0.40648003  0.69102018    -1.15400
O3095       O  0.98675205  0.44634304  0.67898222    -0.74600
C3096       C  0.98696451  0.44090037  0.63414466     0.96200
C3097       C  0.90502114  0.34790096  0.69474833     0.92600
Al3098     Al  0.90257703  0.39577761  0.69175449     1.55600
O3099       O  0.97992928  0.39899475  0.69292386    -0.79200
C3100       C  0.92649581  0.45226786  0.69335138     0.96700
C3101       C  0.91203510  0.39381361  0.59223959     0.91600
O3102       O  0.92177770  0.37997578  0.60482066    -0.84500
O3103       O  0.96809763  0.42093767  0.86578015    -0.84000
C3104       C  0.91515305  0.40283742  0.54189497     0.95400
O3105       O  0.93497320  0.42442255  0.53128927    -0.73100
O3106       O  0.96994531  0.41182583  0.50928272    -0.76700
Al3107     Al  0.95836703  0.43263314  0.97717847     1.49000
C3108       C  0.98549290  0.40719414  0.98643695     0.90700
O3109       O  0.92950262  0.35948060  0.93941486    -0.82900
O3110       O  0.90317008  0.40258937  0.87395961    -0.76400
Al3111     Al  0.94863913  0.39060350  0.90358819     1.90100
O3112       O  0.89214991  0.35920237  0.93445176    -0.75500
O3113       O  0.90620543  0.43031121  0.94965482    -0.75400
O3114       O  0.89992099  0.38833280  0.50931528    -0.81000
O3115       O  0.94872715  0.45487491  0.94891671    -0.79200
O3116       O  0.93649096  0.40648483  0.94102226    -1.15400
O3117       O  0.98675801  0.44634620  0.92898731    -0.74600
C3118       C  0.98696954  0.44090458  0.88414864     0.96200
C3119       C  0.90502371  0.34790682  0.94474651     0.92600
Al3120     Al  0.90258353  0.39578478  0.94175392     1.55600
O3121       O  0.97993457  0.39899764  0.94291958    -0.79200
C3122       C  0.92650557  0.45227390  0.94335785     0.96700
C3123       C  0.91204019  0.39381963  0.84223921     0.91600
O3124       O  0.92178193  0.37998118  0.85482050    -0.84500
O3125       O  0.88159640  0.24785050  0.79103029    -0.84000
C3126       C  0.84671010  0.26588243  0.61491471     0.95400
O3127       O  0.84496181  0.24431267  0.62551591    -0.73100
O3128       O  0.89255432  0.25697735  0.64752490    -0.76700
Al3129     Al  0.86015439  0.23613088  0.67962539     1.49000
C3130       C  0.91274019  0.26162894  0.67036945     0.90700
O3131       O  0.90442144  0.30929463  0.71738519    -0.82900
O3132       O  0.83496115  0.26611166  0.78285184    -0.76400
Al3133     Al  0.89245279  0.27817809  0.75321790     1.90100
O3134       O  0.86731512  0.30951030  0.72234910    -0.75500
O3135       O  0.81025968  0.23835292  0.70717032    -0.75400
O3136       O  0.84596049  0.28036727  0.64749557    -0.81000
O3137       O  0.82825860  0.21384599  0.70787096    -0.79200
O3138       O  0.86440804  0.26226155  0.71578850    -1.15400
O3139       O  0.87485028  0.22245036  0.72781775    -0.74600
C3140       C  0.88050557  0.22789335  0.77265698     0.96200
C3141       C  0.89149743  0.32083695  0.71205366     0.92600
Al3142     Al  0.84117130  0.27291288  0.71505810     1.55600
O3143       O  0.91537899  0.26982427  0.71388687    -0.79200
C3144       C  0.80861360  0.21640176  0.71343408     0.96700
C3145       C  0.85260950  0.27490684  0.81457102     0.91600
O3146       O  0.87619867  0.28876893  0.80198778    -0.84500
O3147       O  0.88160520  0.24785765  0.54103000    -0.84000
C3148       C  0.84670460  0.26588395  0.86491726     0.95400
O3149       O  0.84495165  0.24431298  0.87552560    -0.73100
O3150       O  0.89254598  0.25697803  0.89752748    -0.76700
Al3151     Al  0.86014754  0.23613419  0.92963462     1.49000
C3152       C  0.91273328  0.26163131  0.92036906     0.90700
O3153       O  0.90441985  0.30929943  0.96738726    -0.82900
O3154       O  0.83496411  0.26611757  0.53285526    -0.76400
Al3155     Al  0.89245597  0.27818413  0.50321475     1.90100
O3156       O  0.86731524  0.30951823  0.97234870    -0.75500
O3157       O  0.81025502  0.23836023  0.95717393    -0.75400
O3158       O  0.84595965  0.28037327  0.89749457    -0.81000
O3159       O  0.82825293  0.21385240  0.95788769    -0.79200
O3160       O  0.86440446  0.26226717  0.96579364    -1.15400
O3161       O  0.87484540  0.22245453  0.97782498    -0.74600
C3162       C  0.88051270  0.22789970  0.52265640     0.96200
C3163       C  0.89149756  0.32084319  0.96205382     0.92600
Al3164     Al  0.84116936  0.27292079  0.96505992     1.55600
O3165       O  0.91537429  0.26982835  0.96388573    -0.79200
C3166       C  0.80860744  0.21640829  0.96344122     0.96700
C3167       C  0.85261373  0.27490975  0.56457183     0.91600
O3168       O  0.87620265  0.28877341  0.55198758    -0.84500
loop_ 
_geom_bond_atom_site_label_1 
_geom_bond_atom_site_label_2 
_geom_bond_distance 
_geom_bond_site_symmetry_2 
_ccdc_geom_bond_type 
O1           C16   1.259       .  A
O1           Al9   1.890       .  S
C2           O12   1.256       .  A
C2            O3   1.265       .  A
C2           C43   1.460       .  S
O3           Al5   1.921       .  S
O4            C6   1.254       .  A
O4           Al5   1.903       .  S
Al5          O13   1.851       .  S
Al5          O15   1.969       .  S
Al5          O14   1.750       .  S
C6           O19   1.269       .  A
C6           C94   1.479       .  S
O7           C17   1.267       .  A
O7           Al9   1.890       .  S
O8           C21   1.257       .  A
O8          Al18   1.900       .  S
Al9          O22   1.930       .  S
Al9          O19   1.984       .  S
Al9          O14   1.773       .  S
O10          C17   1.275       .  A
O10         Al18   1.948       .  S
O11          C20   1.268       .  A
O11         Al18   1.963       .  S
O12         Al18   1.894       .  S
O13          C20   1.258       .  A
O14         Al18   1.781       .  S
O15          C16   1.274       .  A
C16         C126   1.461       .  S
C17          C61   1.470   1_545  S
C20        C1296   1.474       .  S
C21          O22   1.266       .  A
C21        C1608   1.460   1_554  S
O23          C38   1.259       .  A
O23         Al31   1.890       .  S
C24          O34   1.256       .  A
C24          O25   1.265       .  A
C24        C1605   1.460       .  S
O25         Al27   1.921       .  S
O26          C28   1.254       .  A
O26         Al27   1.903       .  S
Al27         O35   1.851       .  S
Al27         O37   1.968       .  S
Al27         O36   1.750       .  S
C28          O41   1.269       .  A
C28         C116   1.479       .  S
O29          C39   1.267       .  A
O29         Al31   1.890       .  S
O30          C43   1.257       .  A
O30         Al40   1.900       .  S
Al31         O44   1.930       .  S
Al31         O41   1.984       .  S
Al31         O36   1.773       .  S
O32          C39   1.275       .  A
O32         Al40   1.948       .  S
O33          C42   1.268       .  A
O33         Al40   1.963       .  S
O34         Al40   1.894       .  S
O35          C42   1.258       .  A
O36         Al40   1.781       .  S
O37          C38   1.274       .  A
C38         C104   1.461       .  S
C39          C83   1.470   1_545  S
C42        C1318   1.474       .  S
C43          O44   1.266       .  A
O45          C60   1.259       .  A
O45         Al53   1.890       .  S
C46          O56   1.256       .  A
C46          O47   1.265       .  A
C46        C1671   1.460   1_554  S
O47         Al49   1.921       .  S
O48          C50   1.254       .  A
O48         Al49   1.903       .  S
Al49         O57   1.851       .  S
Al49         O59   1.969       .  S
Al49         O58   1.750       .  S
C50          O63   1.269       .  A
C50         C226   1.479       .  S
O51          C61   1.267       .  A
O51         Al53   1.889       .  S
O52          C65   1.257       .  A
O52         Al62   1.900       .  S
Al53         O66   1.930       .  S
Al53         O63   1.984       .  S
Al53         O58   1.773       .  S
O54          C61   1.275       .  A
O54         Al62   1.948       .  S
O55          C64   1.269       .  A
O55         Al62   1.964       .  S
O56         Al62   1.894       .  S
O57          C64   1.258       .  A
O58         Al62   1.781       .  S
O59          C60   1.274       .  A
C60         C258   1.461       .  S
C64         C592   1.475       .  S
C65          O66   1.266       .  A
C65          C68   1.460       .  S
O67          C82   1.259       .  A
O67         Al75   1.890       .  S
C68          O78   1.256       .  A
C68          O69   1.265       .  A
O69         Al71   1.921       .  S
O70          C72   1.254       .  A
O70         Al71   1.903       .  S
Al71         O79   1.851       .  S
Al71         O81   1.969       .  S
Al71         O80   1.750       .  S
C72          O85   1.269       .  A
C72         C248   1.479       .  S
O73          C83   1.267       .  A
O73         Al75   1.889       .  S
O74          C87   1.257       .  A
O74         Al84   1.900       .  S
Al75         O88   1.930       .  S
Al75         O85   1.984       .  S
Al75         O80   1.773       .  S
O76          C83   1.275       .  A
O76         Al84   1.948       .  S
O77          C86   1.269       .  A
O77         Al84   1.964       .  S
O78         Al84   1.894       .  S
O79          C86   1.258       .  A
O80         Al84   1.781       .  S
O81          C82   1.274       .  A
C82         C236   1.461       .  S
C86         C614   1.475       .  S
C87          O88   1.266       .  A
C87        C1630   1.460       .  S
O89         C104   1.259       .  A
O89         Al97   1.889       .  S
C90         O100   1.256       .  A
C90          O91   1.265       .  A
C90         C131   1.460       .  S
O91         Al93   1.921       .  S
O92          C94   1.254       .  A
O92         Al93   1.903       .  S
Al93        O101   1.851       .  S
Al93        O103   1.969       .  S
Al93        O102   1.750       .  S
C94         O107   1.269       .  A
O95         C105   1.266       .  A
O95         Al97   1.888       .  S
O96         C109   1.257       .  A
O96        Al106   1.900       .  S
Al97        O110   1.929       .  S
Al97        O107   1.984       .  S
Al97        O102   1.773       .  S
O98         C105   1.275       .  A
O98        Al106   1.948       .  S
O99         C108   1.268       .  A
O99        Al106   1.963       .  S
O100       Al106   1.894       .  S
O101        C108   1.258       .  A
O102       Al106   1.781       .  S
O103        C104   1.274       .  A
C105        C149   1.469       .  S
C108       C1208   1.474       .  S
C109        O110   1.266       .  A
C109        C112   1.460       .  S
O111        C126   1.259       .  A
O111       Al119   1.889       .  S
C112        O122   1.256       .  A
C112        O113   1.265       .  A
O113       Al115   1.921       .  S
O114        C116   1.254       .  A
O114       Al115   1.903       .  S
Al115       O123   1.851       .  S
Al115       O125   1.969       .  S
Al115       O124   1.750       .  S
C116        O129   1.269       .  A
O117        C127   1.266       .  A
O117      Al1703   1.888       .  S
O118        C131   1.257       .  A
O118      Al1712   1.900   1_554  S
Al119       O132   1.929       .  S
Al119      O1701   1.888   1_554  S
Al119      O1713   1.984   1_554  S
Al119      O1708   1.773   1_554  S
O120        C127   1.275       .  A
O120       Al128   1.948       .  S
O121        C130   1.268       .  A
O121       Al128   1.963       .  S
O122       Al128   1.894       .  S
O123        C130   1.258       .  A
O124       Al128   1.781       .  S
O124      Al1703   1.773       .  S
O125       C1710   1.274       .  A
C126       O1709   1.274   1_554  A
C127        C171   1.469       .  S
Al128      O1702   1.900       .  S
O129      Al1703   1.984       .  S
C130       C1230   1.474       .  S
C131        O132   1.266       .  A
O133        C148   1.259       .  A
O133       Al141   1.889       .  S
C134        O144   1.257       .  A
C134        O135   1.265       .  A
C134        C175   1.460       .  S
O135       Al137   1.921       .  S
O136        C138   1.254       .  A
O136       Al137   1.903       .  S
Al137       O145   1.851       .  S
Al137       O147   1.969       .  S
Al137       O146   1.750       .  S
C138        O151   1.269       .  A
C138        C204   1.479   1_545  S
O139        C149   1.267       .  A
O139       Al141   1.889       .  S
O140        C153   1.257       .  A
O140       Al150   1.900       .  S
Al141       O154   1.930       .  S
Al141       O151   1.984       .  S
Al141       O146   1.773       .  S
O142        C149   1.275       .  A
O142       Al150   1.947       .  S
O143        C152   1.268       .  A
O143       Al150   1.962       .  S
O144       Al150   1.894       .  S
O145        C152   1.258       .  A
O146       Al150   1.781       .  S
O147        C148   1.274       .  A
C148        C192   1.461   1_545  S
C152        C988   1.474       .  S
C153        O154   1.266       .  A
C153        C156   1.460       .  S
O155        C170   1.259       .  A
O155       Al163   1.889       .  S
C156        O166   1.257       .  A
C156        O157   1.265       .  A
O157      Al1743   1.921   1_554  S
O158       C1744   1.254   1_554  A
O158      Al1743   1.903   1_554  S
Al159       O167   1.851       .  S
Al159       O169   1.969       .  S
Al159      O1741   1.921       .  S
Al159      O1742   1.903       .  S
Al159       O168   1.750       .  S
C160        O173   1.269       .  A
C160       O1742   1.254       .  A
C160       C1766   1.479   1_545  S
O161        C171   1.267       .  A
O161       Al163   1.889       .  S
O162        C175   1.257       .  A
O162       Al172   1.900       .  S
Al163       O176   1.930       .  S
Al163       O173   1.984       .  S
Al163       O168   1.773       .  S
O164        C171   1.275       .  A
O164       Al172   1.947       .  S
O165        C174   1.268       .  A
O165       Al172   1.962       .  S
O166      Al1756   1.894   1_554  S
O167        C174   1.258       .  A
O168       Al172   1.781       .  S
O169        C170   1.274       .  A
C170        C214   1.461   1_545  S
Al172      O1750   1.895       .  S
C174       C1010   1.474       .  S
C175        O176   1.266       .  A
O177        C192   1.259       .  A
O177       Al185   1.889       .  S
C178        O188   1.256       .  A
C178        O179   1.265       .  A
C178        C219   1.460       .  S
O179      Al1765   1.921       .  S
O180       C1766   1.254       .  A
O180      Al1765   1.903       .  S
Al181       O189   1.851       .  S
Al181       O191   1.969       .  S
Al181      O1763   1.921   1_554  S
Al181      O1764   1.903   1_554  S
Al181       O190   1.750       .  S
C182        O195   1.269       .  A
C182       O1764   1.254   1_554  A
C182       C1744   1.479   1_564  S
O183        C193   1.267       .  A
O183       Al185   1.889       .  S
O184        C197   1.257       .  A
O184       Al194   1.900       .  S
Al185       O198   1.930       .  S
Al185       O195   1.984       .  S
Al185       O190   1.773       .  S
O186        C193   1.275       .  A
O186       Al194   1.948       .  S
O187        C196   1.268       .  A
O187       Al194   1.963       .  S
O188      Al1778   1.894       .  S
O189        C196   1.258       .  A
O190       Al194   1.781       .  S
O191        C192   1.274       .  A
C193        C237   1.470       .  S
Al194      O1772   1.894   1_554  S
C196        C944   1.474       .  S
C197        O198   1.266       .  A
C197        C200   1.460       .  S
O199        C214   1.259       .  A
O199       Al207   1.889       .  S
C200        O210   1.256       .  A
C200        O201   1.265       .  A
O201       Al203   1.921       .  S
O202        C204   1.254       .  A
O202       Al203   1.903       .  S
Al203       O211   1.851       .  S
Al203       O213   1.969       .  S
Al203       O212   1.750       .  S
C204        O217   1.269       .  A
O205        C215   1.267       .  A
O205       Al207   1.889       .  S
O206        C219   1.257       .  A
O206       Al216   1.900       .  S
Al207       O220   1.929       .  S
Al207       O217   1.984       .  S
Al207       O212   1.773       .  S
O208        C215   1.275       .  A
O208       Al216   1.948       .  S
O209        C218   1.268       .  A
O209       Al216   1.963       .  S
O210       Al216   1.894       .  S
O211        C218   1.258       .  A
O212       Al216   1.781       .  S
O213        C214   1.274       .  A
C215        C259   1.470       .  S
C218        C966   1.474       .  S
C219        O220   1.266       .  A
O221        C236   1.259       .  A
O221       Al229   1.890       .  S
C222        O232   1.256       .  A
C222        O223   1.265       .  A
C222        C263   1.460       .  S
O223       Al225   1.922       .  S
O224        C226   1.254       .  A
O224       Al225   1.903       .  S
Al225       O233   1.851       .  S
Al225       O235   1.970       .  S
Al225       O234   1.750       .  S
C226        O239   1.269       .  A
O227        C237   1.267       .  A
O227      Al1813   1.889   1_554  S
O228        C241   1.257       .  A
O228      Al1822   1.900       .  S
Al229       O242   1.929       .  S
Al229      O1811   1.889       .  S
Al229      O1823   1.984       .  S
Al229      O1818   1.773       .  S
O230        C237   1.275       .  A
O230       Al238   1.947       .  S
O231        C240   1.268       .  A
O231       Al238   1.962       .  S
O232       Al238   1.894       .  S
O233        C240   1.258       .  A
O234       Al238   1.782       .  S
O234      Al1813   1.773   1_554  S
O235       C1820   1.274   1_554  A
C236       O1819   1.274       .  A
Al238      O1812   1.900   1_554  S
O239      Al1813   1.984   1_554  S
C240        C724   1.474       .  S
C241        O242   1.266       .  A
C241        C244   1.460       .  S
O243        C258   1.259       .  A
O243       Al251   1.890       .  S
C244        O254   1.256       .  A
C244        O245   1.265       .  A
O245       Al247   1.922       .  S
O246        C248   1.254       .  A
O246       Al247   1.903       .  S
Al247       O255   1.851       .  S
Al247       O257   1.970       .  S
Al247       O256   1.750       .  S
C248        O261   1.269       .  A
O249        C259   1.267       .  A
O249       Al251   1.889       .  S
O250        C263   1.257       .  A
O250       Al260   1.901       .  S
Al251       O264   1.929       .  S
Al251       O261   1.984       .  S
Al251       O256   1.773       .  S
O252        C259   1.275       .  A
O252       Al260   1.947       .  S
O253        C262   1.268       .  A
O253       Al260   1.962       .  S
O254       Al260   1.894       .  S
O255        C262   1.258       .  A
O256       Al260   1.782       .  S
O257        C258   1.274       .  A
C262        C746   1.474       .  S
C263        O264   1.266       .  A
O265        C280   1.259       .  A
O265       Al273   1.889       .  S
C266        O276   1.256       .  A
C266        O267   1.265       .  A
C266        C307   1.459       .  S
O267       Al269   1.921       .  S
O268        C270   1.254       .  A
O268       Al269   1.903       .  S
Al269       O277   1.850       .  S
Al269       O279   1.969       .  S
Al269       O278   1.750       .  S
C270        O283   1.269       .  A
C270        C490   1.479       .  S
O271        C281   1.266       .  A
O271       Al273   1.887       .  S
O272        C285   1.257       .  A
O272       Al282   1.900       .  S
Al273       O286   1.929       .  S
Al273       O283   1.984       .  S
Al273       O278   1.773       .  S
O274        C281   1.275       .  A
O274       Al282   1.946       .  S
O275        C284   1.268       .  A
O275       Al282   1.962       .  S
O276       Al282   1.894       .  S
O277        C284   1.258       .  A
O278       Al282   1.781       .  S
O279        C280   1.274       .  A
C280        C522   1.460       .  S
C281        C325   1.468       .  S
C284        C680   1.473       .  S
C285        O286   1.266       .  A
C285        C288   1.459       .  S
O287        C302   1.259       .  A
O287       Al295   1.889       .  S
C288        O298   1.256       .  A
C288        O289   1.265       .  A
O289       Al291   1.921       .  S
O290        C292   1.254       .  A
O290       Al291   1.903       .  S
Al291       O299   1.850       .  S
Al291       O301   1.969       .  S
Al291       O300   1.750       .  S
C292        O305   1.269       .  A
C292        C512   1.479       .  S
O293        C303   1.266       .  A
O293      Al1879   1.887       .  S
O294        C307   1.257       .  A
O294      Al1888   1.900   1_554  S
Al295       O308   1.929       .  S
Al295      O1877   1.887   1_554  S
Al295      O1889   1.984   1_554  S
Al295      O1884   1.773   1_554  S
O296        C303   1.275       .  A
O296       Al304   1.946       .  S
O297        C306   1.268       .  A
O297       Al304   1.962       .  S
O298       Al304   1.894       .  S
O299        C306   1.258       .  A
O300       Al304   1.781       .  S
O300      Al1879   1.773       .  S
O301       C1886   1.274       .  A
C302       O1885   1.274   1_554  A
C302        C500   1.460       .  S
C303        C347   1.468       .  S
Al304      O1878   1.900       .  S
O305      Al1879   1.984       .  S
C306        C702   1.473       .  S
C307        O308   1.266       .  A
O309        C324   1.259       .  A
O309       Al317   1.889       .  S
C310        O320   1.257       .  A
C310        O311   1.265       .  A
C310        C351   1.460       .  S
O311       Al313   1.921       .  S
O312        C314   1.254       .  A
O312       Al313   1.903       .  S
Al313       O321   1.850       .  S
Al313       O323   1.969       .  S
Al313       O322   1.750       .  S
C314        O327   1.269       .  A
C314        C424   1.479       .  S
O315        C325   1.266       .  A
O315       Al317   1.888       .  S
O316        C329   1.257       .  A
O316       Al326   1.900       .  S
Al317       O330   1.930       .  S
Al317       O327   1.984       .  S
Al317       O322   1.773       .  S
O318        C325   1.275       .  A
O318       Al326   1.945       .  S
O319        C328   1.268       .  A
O319       Al326   1.961       .  S
O320       Al326   1.895       .  S
O321        C328   1.258       .  A
O322       Al326   1.781       .  S
O323        C324   1.274       .  A
C324        C412   1.460       .  S
C328       C1164   1.473       .  S
C329        O330   1.266       .  A
C329        C332   1.460       .  S
O331        C346   1.259       .  A
O331       Al339   1.889       .  S
C332        O342   1.257       .  A
C332        O333   1.265       .  A
O333      Al1919   1.921   1_554  S
O334       C1920   1.254   1_554  A
O334      Al1919   1.903   1_554  S
Al335       O343   1.850       .  S
Al335       O345   1.969       .  S
Al335      O1917   1.921       .  S
Al335      O1918   1.903       .  S
Al335       O344   1.750       .  S
C336        O349   1.269       .  A
C336       O1918   1.254       .  A
C336       C1986   1.479       .  S
O337        C347   1.266       .  A
O337       Al339   1.888       .  S
O338        C351   1.257       .  A
O338       Al348   1.900       .  S
Al339       O352   1.930       .  S
Al339       O349   1.984       .  S
Al339       O344   1.773       .  S
O340        C347   1.275       .  A
O340       Al348   1.945       .  S
O341        C350   1.268       .  A
O341       Al348   1.961       .  S
O342      Al1932   1.894   1_554  S
O343        C350   1.258       .  A
O344       Al348   1.781       .  S
O345        C346   1.274       .  A
C346        C434   1.460       .  S
Al348      O1926   1.895       .  S
C350       C1186   1.473       .  S
C351        O352   1.266       .  A
O353        C368   1.259       .  A
O353       Al361   1.889       .  S
C354        O364   1.256       .  A
C354        O355   1.265       .  A
C354        C395   1.460       .  S
O355       Al357   1.921       .  S
O356        C358   1.254       .  A
O356       Al357   1.903       .  S
Al357       O365   1.851       .  S
Al357       O367   1.969       .  S
Al357       O366   1.749       .  S
C358        O371   1.269       .  A
C358        C446   1.479       .  S
O359        C369   1.267       .  A
O359      Al1945   1.888   1_554  S
O360        C373   1.257       .  A
O360      Al1954   1.901       .  S
Al361       O374   1.929       .  S
Al361      O1943   1.888       .  S
Al361      O1955   1.984       .  S
Al361      O1950   1.773       .  S
O362        C369   1.275       .  A
O362       Al370   1.947       .  S
O363        C372   1.268       .  A
O363       Al370   1.963       .  S
O364       Al370   1.894       .  S
O365        C372   1.258       .  A
O366       Al370   1.781       .  S
O366      Al1945   1.773   1_554  S
O367       C1952   1.274   1_554  A
C368       O1951   1.274       .  A
C368        C478   1.461       .  S
C369        C413   1.469       .  S
Al370      O1944   1.901   1_554  S
O371      Al1945   1.984   1_554  S
C372        C900   1.474       .  S
C373        O374   1.266       .  A
C373        C376   1.460       .  S
O375        C390   1.259       .  A
O375       Al383   1.889       .  S
C376        O386   1.256       .  A
C376        O377   1.265       .  A
O377       Al379   1.921       .  S
O378        C380   1.254       .  A
O378       Al379   1.903       .  S
Al379       O387   1.851       .  S
Al379       O389   1.969       .  S
Al379       O388   1.749       .  S
C380        O393   1.269       .  A
C380        C468   1.479       .  S
O381        C391   1.267       .  A
O381       Al383   1.888       .  S
O382        C395   1.257       .  A
O382       Al392   1.901       .  S
Al383       O396   1.929       .  S
Al383       O393   1.984       .  S
Al383       O388   1.773       .  S
O384        C391   1.275       .  A
O384       Al392   1.947       .  S
O385        C394   1.268       .  A
O385       Al392   1.963       .  S
O386       Al392   1.894       .  S
O387        C394   1.258       .  A
O388       Al392   1.781       .  S
O389        C390   1.274       .  A
C390        C456   1.461       .  S
C391        C435   1.469       .  S
C394        C922   1.474       .  S
C395        O396   1.266       .  A
O397        C412   1.259       .  A
O397       Al405   1.889       .  S
C398        O408   1.256       .  A
C398        O399   1.265       .  A
C398        C439   1.460       .  S
O399      Al1985   1.921       .  S
O400       C1986   1.254       .  A
O400      Al1985   1.903       .  S
Al401       O409   1.850       .  S
Al401       O411   1.969       .  S
Al401      O1983   1.921   1_554  S
Al401      O1984   1.903   1_554  S
Al401       O410   1.750       .  S
C402        O415   1.269       .  A
C402       O1984   1.254   1_554  A
C402       C1920   1.479   1_554  S
O403        C413   1.267       .  A
O403       Al405   1.888       .  S
O404        C417   1.257       .  A
O404       Al414   1.900       .  S
Al405       O418   1.930       .  S
Al405       O415   1.984       .  S
Al405       O410   1.773       .  S
O406        C413   1.275       .  A
O406       Al414   1.946       .  S
O407        C416   1.268       .  A
O407       Al414   1.962       .  S
O408      Al1998   1.894       .  S
O409        C416   1.258       .  A
O410       Al414   1.781       .  S
O411        C412   1.274       .  A
Al414      O1992   1.894   1_554  S
C416       C1076   1.473       .  S
C417        O418   1.266       .  A
C417        C420   1.460       .  S
O419        C434   1.259       .  A
O419       Al427   1.889       .  S
C420        O430   1.256       .  A
C420        O421   1.265       .  A
O421       Al423   1.921       .  S
O422        C424   1.254       .  A
O422       Al423   1.903       .  S
Al423       O431   1.850       .  S
Al423       O433   1.969       .  S
Al423       O432   1.750       .  S
C424        O437   1.269       .  A
O425        C435   1.267       .  A
O425       Al427   1.888       .  S
O426        C439   1.257       .  A
O426       Al436   1.900       .  S
Al427       O440   1.930       .  S
Al427       O437   1.984       .  S
Al427       O432   1.773       .  S
O428        C435   1.275       .  A
O428       Al436   1.946       .  S
O429        C438   1.268       .  A
O429       Al436   1.962       .  S
O430       Al436   1.894       .  S
O431        C438   1.258       .  A
O432       Al436   1.781       .  S
O433        C434   1.274       .  A
C438       C1098   1.473       .  S
C439        O440   1.266       .  A
O441        C456   1.259       .  A
O441       Al449   1.890       .  S
C442        O452   1.256       .  A
C442        O443   1.265       .  A
C442       C2067   1.460   1_554  S
O443       Al445   1.921       .  S
O444        C446   1.254       .  A
O444       Al445   1.903       .  S
Al445       O453   1.851       .  S
Al445       O455   1.969       .  S
Al445       O454   1.750       .  S
C446        O459   1.269       .  A
O447        C457   1.267       .  A
O447       Al449   1.890       .  S
O448        C461   1.257       .  A
O448       Al458   1.900       .  S
Al449       O462   1.930       .  S
Al449       O459   1.984       .  S
Al449       O454   1.773       .  S
O450        C457   1.275       .  A
O450       Al458   1.948       .  S
O451        C460   1.269       .  A
O451       Al458   1.964       .  S
O452       Al458   1.894       .  S
O453        C460   1.258       .  A
O454       Al458   1.781       .  S
O455        C456   1.274       .  A
C457        C501   1.470       .  S
C460        C856   1.475       .  S
C461        O462   1.266       .  A
C461        C464   1.460       .  S
O463        C478   1.259       .  A
O463       Al471   1.890       .  S
C464        O474   1.256       .  A
C464        O465   1.265       .  A
O465       Al467   1.921       .  S
O466        C468   1.254       .  A
O466       Al467   1.903       .  S
Al467       O475   1.851       .  S
Al467       O477   1.969       .  S
Al467       O476   1.750       .  S
C468        O481   1.269       .  A
O469        C479   1.267       .  A
O469       Al471   1.890       .  S
O470        C483   1.257       .  A
O470       Al480   1.900       .  S
Al471       O484   1.930       .  S
Al471       O481   1.984       .  S
Al471       O476   1.773       .  S
O472        C479   1.275       .  A
O472       Al480   1.949       .  S
O473        C482   1.269       .  A
O473       Al480   1.964       .  S
O474       Al480   1.894       .  S
O475        C482   1.258       .  A
O476       Al480   1.781       .  S
O477        C478   1.274       .  A
C479        C523   1.470       .  S
C482        C878   1.475       .  S
C483        O484   1.266       .  A
C483       C2026   1.460       .  S
O485        C500   1.259       .  A
O485       Al493   1.890       .  S
C486        O496   1.256       .  A
C486        O487   1.265       .  A
C486        C527   1.460       .  S
O487       Al489   1.921       .  S
O488        C490   1.254       .  A
O488       Al489   1.903       .  S
Al489       O497   1.850       .  S
Al489       O499   1.968       .  S
Al489       O498   1.750       .  S
C490        O503   1.269       .  A
O491        C501   1.267       .  A
O491       Al493   1.889       .  S
O492        C505   1.257       .  A
O492       Al502   1.900       .  S
Al493       O506   1.930       .  S
Al493       O503   1.984       .  S
Al493       O498   1.773       .  S
O494        C501   1.275       .  A
O494       Al502   1.949       .  S
O495        C504   1.269       .  A
O495       Al502   1.963       .  S
O496       Al502   1.894       .  S
O497        C504   1.257       .  A
O498       Al502   1.781       .  S
O499        C500   1.274       .  A
C504        C548   1.474       .  S
C505        O506   1.266       .  A
C505       C2092   1.460   1_554  S
O507        C522   1.259       .  A
O507       Al515   1.890       .  S
C508        O518   1.256       .  A
C508        O509   1.265       .  A
C508       C2089   1.460       .  S
O509       Al511   1.921       .  S
O510        C512   1.254       .  A
O510       Al511   1.903       .  S
Al511       O519   1.850       .  S
Al511       O521   1.968       .  S
Al511       O520   1.750       .  S
C512        O525   1.269       .  A
O513        C523   1.267       .  A
O513       Al515   1.889       .  S
O514        C527   1.257       .  A
O514       Al524   1.900       .  S
Al515       O528   1.930       .  S
Al515       O525   1.984       .  S
Al515       O520   1.773       .  S
O516        C523   1.275       .  A
O516       Al524   1.949       .  S
O517        C526   1.269       .  A
O517       Al524   1.963       .  S
O518       Al524   1.894       .  S
O519        C526   1.257       .  A
O520       Al524   1.781       .  S
O521        C522   1.274       .  A
C526        C570   1.474       .  S
C527        O528   1.266       .  A
O529        C544   1.247       .  A
O529       Al537   1.857       .  S
C530        O540   1.264   1_556  A
C530        O531   1.259   1_556  A
C530       C2155   1.446       .  S
O531       Al533   1.899       .  S
O532        C534   1.261       .  A
O532       Al533   1.915       .  S
Al533       O541   1.838       .  S
Al533       O543   1.922       .  S
Al533       O542   1.766       .  S
C534        O547   1.282       .  A
C534        C688   1.509       .  S
O535        C545   1.270       .  A
O535       Al537   1.887       .  S
O536        C549   1.260       .  A
O536       Al546   1.894       .  S
Al537       O550   1.933       .  S
Al537       O547   2.031       .  S
Al537       O542   1.762       .  S
O538        C545   1.275       .  A
O538       Al546   1.950       .  S
O539        C548   1.274       .  A
O539       Al546   1.982       .  S
O540       Al546   1.912       .  S
O541        C548   1.253       .  A
O542       Al546   1.770       .  S
O543        C544   1.264       .  A
C544        C676   1.418       .  S
C545        C589   1.470   1_655  S
C549        O550   1.265       .  A
C549        C552   1.446       .  S
O551        C566   1.247       .  A
O551       Al559   1.857       .  S
C552        O562   1.264       .  A
C552        O553   1.259       .  A
O553       Al555   1.899       .  S
O554        C556   1.261       .  A
O554       Al555   1.915       .  S
Al555       O563   1.838       .  S
Al555       O565   1.922       .  S
Al555       O564   1.766       .  S
C556        O569   1.282       .  A
C556        C666   1.509       .  S
O557        C567   1.270       .  A
O557       Al559   1.887       .  S
O558        C571   1.260       .  A
O558       Al568   1.894       .  S
Al559       O572   1.933       .  S
Al559       O569   2.031       .  S
Al559       O564   1.762       .  S
O560        C567   1.275       .  A
O560       Al568   1.950       .  S
O561        C570   1.274       .  A
O561       Al568   1.982       .  S
O562       Al568   1.912       .  S
O563        C570   1.253       .  A
O564       Al568   1.770       .  S
O565        C566   1.264       .  A
C566        C698   1.418       .  S
C567        C611   1.470   1_655  S
C571        O572   1.265       .  A
C571       C2114   1.446       .  S
O573        C588   1.247       .  A
O573       Al581   1.857       .  S
C574        O584   1.264       .  A
C574        O575   1.259       .  A
C574        C615   1.446       .  S
O575       Al577   1.899       .  S
O576        C578   1.261       .  A
O576       Al577   1.915       .  S
Al577       O585   1.837       .  S
Al577       O587   1.921       .  S
Al577       O586   1.766       .  S
C578        O591   1.283       .  A
C578        C732   1.509       .  S
O579        C589   1.270       .  A
O579       Al581   1.886       .  S
O580        C593   1.259       .  A
O580       Al590   1.893       .  S
Al581       O594   1.934       .  S
Al581       O591   2.031       .  S
Al581       O586   1.762       .  S
O582        C589   1.275       .  A
O582       Al590   1.951       .  S
O583        C592   1.275       .  A
O583       Al590   1.984       .  S
O584       Al590   1.912       .  S
O585        C592   1.253       .  A
O586       Al590   1.770       .  S
O587        C588   1.264       .  A
C588        C720   1.417       .  S
C593        O594   1.265       .  A
C593       C2180   1.446   1_554  S
O595        C610   1.247       .  A
O595       Al603   1.857       .  S
C596        O606   1.264       .  A
C596        O597   1.259       .  A
C596       C2177   1.446       .  S
O597       Al599   1.899       .  S
O598        C600   1.261       .  A
O598       Al599   1.915       .  S
Al599       O607   1.837       .  S
Al599       O609   1.921       .  S
Al599       O608   1.766       .  S
C600        O613   1.283       .  A
C600        C710   1.509       .  S
O601        C611   1.270       .  A
O601       Al603   1.886       .  S
O602        C615   1.259       .  A
O602       Al612   1.893       .  S
Al603       O616   1.934       .  S
Al603       O613   2.031       .  S
Al603       O608   1.762       .  S
O604        C611   1.275       .  A
O604       Al612   1.951       .  S
O605        C614   1.275       .  A
O605       Al612   1.984       .  S
O606       Al612   1.912       .  S
O607        C614   1.253       .  A
O608       Al612   1.770       .  S
O609        C610   1.264       .  A
C610        C742   1.417       .  S
C615        O616   1.265       .  A
O617        C632   1.247       .  A
O617       Al625   1.857       .  S
C618        O628   1.264       .  A
C618        O619   1.259       .  A
C618        C659   1.446       .  S
O619       Al621   1.899       .  S
O620        C622   1.260       .  A
O620       Al621   1.914       .  S
Al621       O629   1.836       .  S
Al621       O631   1.922       .  S
Al621       O630   1.766       .  S
C622        O635   1.282       .  A
C622        C754   1.509   1_655  S
O623        C633   1.270       .  A
O623       Al625   1.885       .  S
O624        C637   1.259       .  A
O624       Al634   1.894       .  S
Al625       O638   1.933       .  S
Al625       O635   2.031       .  S
Al625       O630   1.762       .  S
O626        C633   1.275       .  A
O626       Al634   1.951       .  S
O627        C636   1.275       .  A
O627       Al634   1.983       .  S
O628       Al634   1.911       .  S
O629        C636   1.253       .  A
O630       Al634   1.770       .  S
O631        C632   1.264       .  A
C632        C786   1.418   1_655  S
C633        C677   1.470       .  S
C636       C1516   1.474       .  S
C637        O638   1.265       .  A
C637        C640   1.446       .  S
O639       C2238   1.247   1_554  A
O639      Al2231   1.857   1_554  S
C640        O650   1.264       .  A
C640        O641   1.259       .  A
O641       Al643   1.899       .  S
O642        C644   1.260       .  A
O642       Al643   1.914       .  S
Al643       O651   1.836       .  S
Al643       O653   1.922       .  S
Al643       O652   1.766       .  S
C644        O657   1.282       .  A
C644        C776   1.509   1_655  S
O645        C655   1.270       .  A
O645       Al647   1.885       .  S
O646        C659   1.259       .  A
O646      Al2240   1.894   1_554  S
Al647       O657   2.031       .  S
Al647      O2223   1.857       .  S
Al647      O2244   1.934       .  S
Al647       O652   1.762       .  S
O648        C655   1.275       .  A
O648       Al656   1.951       .  S
O649        C658   1.275       .  A
O649       Al656   1.983       .  S
O650       Al656   1.911       .  S
O651        C658   1.253       .  A
O652       Al656   1.770       .  S
O653        C654   1.264       .  A
C654       O2223   1.247       .  A
C654       C2348   1.418   1_655  S
C655        C699   1.470       .  S
Al656      O2230   1.894       .  S
C658       C1538   1.474       .  S
C659        O660   1.265       .  A
O660      Al2231   1.933   1_554  S
O661        C676   1.247       .  A
O661       Al669   1.858       .  S
C662        O672   1.264       .  A
C662        O663   1.259       .  A
C662        C703   1.446       .  S
O663       Al665   1.899       .  S
O664        C666   1.260       .  A
O664       Al665   1.914       .  S
Al665       O673   1.836       .  S
Al665       O675   1.922       .  S
Al665       O674   1.765       .  S
C666        O679   1.282       .  A
O667        C677   1.270       .  A
O667       Al669   1.886       .  S
O668        C681   1.260       .  A
O668       Al678   1.894       .  S
Al669       O682   1.933       .  S
Al669       O679   2.031       .  S
Al669       O674   1.762       .  S
O670        C677   1.275       .  A
O670       Al678   1.950       .  S
O671        C680   1.274       .  A
O671       Al678   1.982       .  S
O672       Al678   1.911       .  S
O673        C680   1.253       .  A
O674       Al678   1.770       .  S
O675        C676   1.264       .  A
C681        O682   1.265       .  A
C681        C684   1.446       .  S
O683        C698   1.247       .  A
O683       Al691   1.858       .  S
C684        O694   1.264       .  A
C684        O685   1.259       .  A
O685       Al687   1.899       .  S
O686        C688   1.260       .  A
O686       Al687   1.914       .  S
Al687      O2279   1.836   1_554  S
Al687      O2281   1.922   1_554  S
Al687      O2280   1.765   1_554  S
C688       O2285   1.282   1_554  A
O689        C699   1.270       .  A
O689       Al691   1.886       .  S
O690        C703   1.260       .  A
O690       Al700   1.894       .  S
Al691       O704   1.933       .  S
Al691       O701   2.031       .  S
Al691       O696   1.762       .  S
O692        C699   1.275       .  A
O692       Al700   1.950       .  S
O693        C702   1.274       .  A
O693       Al700   1.982       .  S
O694      Al2284   1.911   1_554  S
O695        C702   1.253       .  A
O695      Al2271   1.836       .  S
O696       Al700   1.770       .  S
O696      Al2271   1.765       .  S
O697        C698   1.264       .  A
O697      Al2271   1.922       .  S
Al700      O2278   1.911       .  S
O701       C2272   1.282       .  A
C703        O704   1.265       .  A
O705        C720   1.247       .  A
O705       Al713   1.858       .  S
C706        O716   1.264       .  A
C706        O707   1.259       .  A
C706        C747   1.446       .  S
O707       Al709   1.898       .  S
O708        C710   1.260       .  A
O708       Al709   1.914       .  S
Al709      O2301   1.836       .  S
Al709      O2303   1.921       .  S
Al709      O2302   1.766       .  S
C710       O2307   1.283       .  A
O711        C721   1.270       .  A
O711       Al713   1.887       .  S
O712        C725   1.260       .  A
O712       Al722   1.893       .  S
Al713       O726   1.934       .  S
Al713       O723   2.032       .  S
Al713       O718   1.762       .  S
O714        C721   1.275       .  A
O714       Al722   1.950       .  S
O715        C724   1.275       .  A
O715       Al722   1.983       .  S
O716      Al2306   1.912       .  S
O717        C724   1.253       .  A
O717      Al2293   1.836   1_554  S
O718       Al722   1.770       .  S
O718      Al2293   1.766   1_554  S
O719        C720   1.264       .  A
O719      Al2293   1.921   1_554  S
C721        C765   1.471       .  S
Al722      O2300   1.912   1_554  S
O723       C2294   1.283   1_554  A
C725        O726   1.265       .  A
C725        C728   1.446       .  S
O727        C742   1.247       .  A
O727       Al735   1.858       .  S
C728        O738   1.264       .  A
C728        O729   1.258       .  A
O729       Al731   1.898       .  S
O730        C732   1.260       .  A
O730       Al731   1.914       .  S
Al731       O739   1.836       .  S
Al731       O741   1.921       .  S
Al731       O740   1.766       .  S
C732        O745   1.283       .  A
O733        C743   1.270       .  A
O733       Al735   1.887       .  S
O734        C747   1.260       .  A
O734       Al744   1.893       .  S
Al735       O748   1.934       .  S
Al735       O745   2.032       .  S
Al735       O740   1.762       .  S
O736        C743   1.275       .  A
O736       Al744   1.950       .  S
O737        C746   1.275       .  A
O737       Al744   1.983       .  S
O738       Al744   1.912       .  S
O739        C746   1.253       .  A
O740       Al744   1.770       .  S
O741        C742   1.264       .  A
C743        C787   1.471       .  S
C747        O748   1.265       .  A
O749       C2348   1.247       .  A
O749      Al2341   1.857       .  S
C750        O760   1.264       .  A
C750        O751   1.259       .  A
C750        C791   1.446       .  S
O751       Al753   1.899       .  S
O752        C754   1.261       .  A
O752       Al753   1.915       .  S
Al753       O761   1.838       .  S
Al753       O763   1.921       .  S
Al753       O762   1.766       .  S
C754        O767   1.282       .  A
O755        C765   1.270       .  A
O755       Al757   1.887       .  S
O756        C769   1.259       .  A
O756      Al2350   1.893       .  S
Al757       O767   2.030       .  S
Al757      O2333   1.857   1_554  S
Al757      O2354   1.933   1_554  S
Al757       O762   1.762       .  S
O758        C765   1.275       .  A
O758       Al766   1.951       .  S
O759        C768   1.275       .  A
O759       Al766   1.983       .  S
O760       Al766   1.912       .  S
O761        C768   1.253       .  A
O762       Al766   1.770       .  S
O763        C764   1.264       .  A
C764       O2333   1.247   1_554  A
C764       C2238   1.418   1_454  S
Al766      O2340   1.893   1_554  S
C768       C1428   1.475       .  S
C769        O770   1.265       .  A
C769        C772   1.446       .  S
O770      Al2341   1.933       .  S
O771        C786   1.247       .  A
O771       Al779   1.857       .  S
C772        O782   1.264       .  A
C772        O773   1.259       .  A
O773       Al775   1.899       .  S
O774        C776   1.261       .  A
O774       Al775   1.915       .  S
Al775       O783   1.838       .  S
Al775       O785   1.921       .  S
Al775       O784   1.766       .  S
C776        O789   1.282       .  A
O777        C787   1.270       .  A
O777       Al779   1.887       .  S
O778        C791   1.259       .  A
O778       Al788   1.893       .  S
Al779       O792   1.933       .  S
Al779       O789   2.030       .  S
Al779       O784   1.762       .  S
O780        C787   1.275       .  A
O780       Al788   1.950       .  S
O781        C790   1.275       .  A
O781       Al788   1.983       .  S
O782       Al788   1.912       .  S
O783        C790   1.253       .  A
O784       Al788   1.770       .  S
O785        C786   1.264       .  A
C790       C1450   1.475       .  S
C791        O792   1.265       .  A
O793        C808   1.247       .  A
O793       Al801   1.857       .  S
C794        O804   1.264   1_556  A
C794        O795   1.259   1_556  A
C794       C2419   1.446       .  S
O795       Al797   1.899       .  S
O796        C798   1.261       .  A
O796       Al797   1.915       .  S
Al797       O805   1.837       .  S
Al797       O807   1.921       .  S
Al797       O806   1.766       .  S
C798        O811   1.283       .  A
C798       C1040   1.509       .  S
O799        C809   1.270       .  A
O799       Al801   1.887       .  S
O800        C813   1.259       .  A
O800       Al810   1.893       .  S
Al801       O814   1.934       .  S
Al801       O811   2.031       .  S
Al801       O806   1.762       .  S
O802        C809   1.275       .  A
O802       Al810   1.952       .  S
O803        C812   1.275       .  A
O803       Al810   1.984       .  S
O804       Al810   1.912       .  S
O805        C812   1.253       .  A
O806       Al810   1.770       .  S
O807        C808   1.264       .  A
C808       C1028   1.418       .  S
C809        C853   1.471   1_545  S
C812       C1340   1.475       .  S
C813        O814   1.265       .  A
C813        C816   1.446       .  S
O815        C830   1.247       .  A
O815       Al823   1.857       .  S
C816        O826   1.264       .  A
C816        O817   1.259       .  A
O817       Al819   1.899       .  S
O818        C820   1.261       .  A
O818       Al819   1.915       .  S
Al819       O827   1.837       .  S
Al819       O829   1.921       .  S
Al819       O828   1.766       .  S
C820        O833   1.283       .  A
C820       C1018   1.509       .  S
O821        C831   1.270       .  A
O821       Al823   1.887       .  S
O822        C835   1.259       .  A
O822       Al832   1.893       .  S
Al823       O836   1.934       .  S
Al823       O833   2.031       .  S
Al823       O828   1.762       .  S
O824        C831   1.275       .  A
O824       Al832   1.952       .  S
O825        C834   1.275       .  A
O825       Al832   1.984       .  S
O826       Al832   1.912       .  S
O827        C834   1.253       .  A
O828       Al832   1.770       .  S
O829        C830   1.264       .  A
C830       C1050   1.418       .  S
C831        C875   1.471   1_545  S
C834       C1362   1.475       .  S
C835        O836   1.265       .  A
C835       C2378   1.446       .  S
O837        C852   1.247       .  A
O837       Al845   1.857       .  S
C838        O848   1.264       .  A
C838        O839   1.259       .  A
C838        C879   1.446       .  S
O839       Al841   1.899       .  S
O840        C842   1.261       .  A
O840       Al841   1.915       .  S
Al841       O849   1.838       .  S
Al841       O851   1.921       .  S
Al841       O850   1.766       .  S
C842        O855   1.283       .  A
C842        C908   1.509       .  S
O843        C853   1.270       .  A
O843       Al845   1.887       .  S
O844        C857   1.259       .  A
O844       Al854   1.893       .  S
Al845       O858   1.934       .  S
Al845       O855   2.031       .  S
Al845       O850   1.762       .  S
O846        C853   1.275       .  A
O846       Al854   1.951       .  S
O847        C856   1.275       .  A
O847       Al854   1.983       .  S
O848       Al854   1.912       .  S
O849        C856   1.253       .  A
O850       Al854   1.770       .  S
O851        C852   1.264       .  A
C852        C896   1.418       .  S
C857        O858   1.265       .  A
C857       C2444   1.446   1_554  S
O859        C874   1.247       .  A
O859       Al867   1.857       .  S
C860        O870   1.264       .  A
C860        O861   1.259       .  A
C860       C2441   1.446       .  S
O861       Al863   1.899       .  S
O862        C864   1.261       .  A
O862       Al863   1.915       .  S
Al863       O871   1.838       .  S
Al863       O873   1.921       .  S
Al863       O872   1.766       .  S
C864        O877   1.283       .  A
C864        C886   1.509       .  S
O865        C875   1.270       .  A
O865       Al867   1.887       .  S
O866        C879   1.259       .  A
O866       Al876   1.893       .  S
Al867       O880   1.934       .  S
Al867       O877   2.031       .  S
Al867       O872   1.762       .  S
O868        C875   1.275       .  A
O868       Al876   1.951       .  S
O869        C878   1.275       .  A
O869       Al876   1.983       .  S
O870       Al876   1.912       .  S
O871        C878   1.253       .  A
O872       Al876   1.770       .  S
O873        C874   1.264       .  A
C874        C918   1.418       .  S
C879        O880   1.265       .  A
O881        C896   1.247       .  A
O881       Al889   1.858       .  S
C882        O892   1.264       .  A
C882        O883   1.259       .  A
C882        C923   1.446       .  S
O883       Al885   1.899       .  S
O884        C886   1.261       .  A
O884       Al885   1.914       .  S
Al885      O2477   1.836       .  S
Al885      O2479   1.921       .  S
Al885      O2478   1.766       .  S
C886       O2483   1.283       .  A
O887        C897   1.270       .  A
O887       Al889   1.886       .  S
O888        C901   1.260       .  A
O888       Al898   1.894       .  S
Al889       O902   1.934       .  S
Al889       O899   2.032       .  S
Al889       O894   1.762       .  S
O890        C897   1.275       .  A
O890       Al898   1.951       .  S
O891        C900   1.275       .  A
O891       Al898   1.984       .  S
O892      Al2482   1.912       .  S
O893        C900   1.253       .  A
O893      Al2469   1.836   1_554  S
O894       Al898   1.770       .  S
O894      Al2469   1.766   1_554  S
O895        C896   1.264       .  A
O895      Al2469   1.921   1_554  S
C897        C941   1.471       .  S
Al898      O2476   1.912   1_554  S
O899       C2470   1.283   1_554  A
C901        O902   1.265       .  A
C901        C904   1.446       .  S
O903        C918   1.247       .  A
O903       Al911   1.858       .  S
C904        O914   1.264       .  A
C904        O905   1.259       .  A
O905       Al907   1.899       .  S
O906        C908   1.261       .  A
O906       Al907   1.915       .  S
Al907       O915   1.836       .  S
Al907       O917   1.921       .  S
Al907       O916   1.766       .  S
C908        O921   1.283       .  A
O909        C919   1.270       .  A
O909       Al911   1.886       .  S
O910        C923   1.260       .  A
O910       Al920   1.894       .  S
Al911       O924   1.934       .  S
Al911       O921   2.032       .  S
Al911       O916   1.762       .  S
O912        C919   1.275       .  A
O912       Al920   1.951       .  S
O913        C922   1.275       .  A
O913       Al920   1.984       .  S
O914       Al920   1.912       .  S
O915        C922   1.253       .  A
O916       Al920   1.770       .  S
O917        C918   1.264       .  A
C919        C963   1.471       .  S
C923        O924   1.265       .  A
O925       C2524   1.247       .  A
O925      Al2517   1.857       .  S
C926        O936   1.264       .  A
C926        O927   1.259       .  A
C926        C967   1.446       .  S
O927       Al929   1.899       .  S
O928        C930   1.261       .  A
O928       Al929   1.915       .  S
Al929       O937   1.837       .  S
Al929       O939   1.922       .  S
Al929       O938   1.766       .  S
C930        O943   1.282       .  A
C930        C974   1.509   1_565  S
O931        C941   1.270       .  A
O931       Al933   1.886       .  S
O932        C945   1.260       .  A
O932      Al2526   1.894       .  S
Al933       O943   2.031       .  S
Al933      O2509   1.857   1_554  S
Al933      O2530   1.933   1_554  S
Al933       O938   1.762       .  S
O934        C941   1.275       .  A
O934       Al942   1.951       .  S
O935        C944   1.275       .  A
O935       Al942   1.983       .  S
O936       Al942   1.912       .  S
O937        C944   1.253       .  A
O938       Al942   1.770       .  S
O939        C940   1.264       .  A
C940       O2509   1.247   1_554  A
C940       C2590   1.418   1_564  S
Al942      O2516   1.894   1_554  S
C945        O946   1.265       .  A
C945        C948   1.446       .  S
O946      Al2517   1.933       .  S
O947        C962   1.247       .  A
O947       Al955   1.857       .  S
C948        O958   1.264       .  A
C948        O949   1.259       .  A
O949       Al951   1.899       .  S
O950        C952   1.261       .  A
O950       Al951   1.915       .  S
Al951       O959   1.837       .  S
Al951       O961   1.922       .  S
Al951       O960   1.766       .  S
C952        O965   1.282       .  A
C952        C996   1.509   1_565  S
O953        C963   1.270       .  A
O953       Al955   1.886       .  S
O954        C967   1.260       .  A
O954       Al964   1.894       .  S
Al955       O968   1.933       .  S
Al955       O965   2.031       .  S
Al955       O960   1.762       .  S
O956        C963   1.275       .  A
O956       Al964   1.951       .  S
O957        C966   1.275       .  A
O957       Al964   1.983       .  S
O958       Al964   1.912       .  S
O959        C966   1.253       .  A
O960       Al964   1.770       .  S
O961        C962   1.264       .  A
C962        C984   1.418   1_565  S
C967        O968   1.265       .  A
O969        C984   1.247       .  A
O969       Al977   1.858       .  S
C970        O980   1.264       .  A
C970        O971   1.259       .  A
C970       C1011   1.446       .  S
O971       Al973   1.899       .  S
O972        C974   1.260       .  A
O972       Al973   1.914       .  S
Al973       O981   1.837       .  S
Al973       O983   1.921       .  S
Al973       O982   1.766       .  S
C974        O987   1.282       .  A
O975        C985   1.270       .  A
O975       Al977   1.887       .  S
O976        C989   1.259       .  A
O976       Al986   1.894       .  S
Al977       O990   1.934       .  S
Al977       O987   2.031       .  S
Al977       O982   1.762       .  S
O978        C985   1.275       .  A
O978       Al986   1.950       .  S
O979        C988   1.274       .  A
O979       Al986   1.982       .  S
O980       Al986   1.911       .  S
O981        C988   1.253       .  A
O982       Al986   1.770       .  S
O983        C984   1.264       .  A
C985       C1029   1.470       .  S
C989        O990   1.265       .  A
C989        C992   1.446       .  S
O991       C2590   1.247   1_554  A
O991      Al2583   1.858   1_554  S
C992       O1002   1.264       .  A
C992        O993   1.259       .  A
O993       Al995   1.899       .  S
O994        C996   1.260       .  A
O994       Al995   1.914       .  S
Al995      O1003   1.837       .  S
Al995      O1005   1.921       .  S
Al995      O1004   1.766       .  S
C996       O1009   1.283       .  A
O997       C1007   1.270       .  A
O997       Al999   1.887       .  S
O998       C1011   1.259       .  A
O998      Al2592   1.893   1_554  S
Al999      O1009   2.031       .  S
Al999      O2575   1.858       .  S
Al999      O2596   1.934       .  S
Al999      O1004   1.762       .  S
O1000      C1007   1.275       .  A
O1000     Al1008   1.950       .  S
O1001      C1010   1.274       .  A
O1001     Al1008   1.982       .  S
O1002     Al1008   1.912       .  S
O1003      C1010   1.253       .  A
O1004     Al1008   1.770       .  S
O1005      C1006   1.264       .  A
C1006      O2575   1.247       .  A
C1006      C2524   1.418   1_545  S
C1007      C1051   1.470       .  S
Al1008     O2582   1.894       .  S
C1011      O1012   1.265       .  A
O1012     Al2583   1.934   1_554  S
O1013      C1028   1.247       .  A
O1013     Al1021   1.858       .  S
C1014      O1024   1.264       .  A
C1014      O1015   1.259       .  A
C1014      C1055   1.446       .  S
O1015     Al1017   1.899       .  S
O1016      C1018   1.261       .  A
O1016     Al1017   1.915       .  S
Al1017     O1025   1.836       .  S
Al1017     O1027   1.921       .  S
Al1017     O1026   1.766       .  S
C1018      O1031   1.283       .  A
O1019      C1029   1.270       .  A
O1019     Al1021   1.886       .  S
O1020      C1033   1.259       .  A
O1020     Al1030   1.894       .  S
Al1021     O1034   1.934       .  S
Al1021     O1031   2.031       .  S
Al1021     O1026   1.762       .  S
O1022      C1029   1.275       .  A
O1022     Al1030   1.951       .  S
O1023      C1032   1.275       .  A
O1023     Al1030   1.984       .  S
O1024     Al1030   1.912       .  S
O1025      C1032   1.253       .  A
O1026     Al1030   1.770       .  S
O1027      C1028   1.264       .  A
C1032      C1560   1.474       .  S
C1033      O1034   1.265       .  A
C1033      C1036   1.446       .  S
O1035      C1050   1.247       .  A
O1035     Al1043   1.858       .  S
C1036      O1046   1.264       .  A
C1036      O1037   1.259       .  A
O1037     Al1039   1.899       .  S
O1038      C1040   1.261       .  A
O1038     Al1039   1.915       .  S
Al1039     O2631   1.836   1_554  S
Al1039     O2633   1.921   1_554  S
Al1039     O2632   1.766   1_554  S
C1040      O2637   1.283   1_554  A
O1041      C1051   1.270       .  A
O1041     Al1043   1.886       .  S
O1042      C1055   1.259       .  A
O1042     Al1052   1.894       .  S
Al1043     O1056   1.934       .  S
Al1043     O1053   2.031       .  S
Al1043     O1048   1.762       .  S
O1044      C1051   1.275       .  A
O1044     Al1052   1.951       .  S
O1045      C1054   1.275       .  A
O1045     Al1052   1.984       .  S
O1046     Al2636   1.912   1_554  S
O1047      C1054   1.253       .  A
O1047     Al2623   1.836       .  S
O1048     Al1052   1.770       .  S
O1048     Al2623   1.766       .  S
O1049      C1050   1.264       .  A
O1049     Al2623   1.921       .  S
Al1052     O2630   1.912       .  S
O1053      C2624   1.283       .  A
C1054      C1582   1.474       .  S
C1055      O1056   1.265       .  A
O1057      C2656   1.247       .  A
O1057     Al2649   1.857       .  S
C1058      O1068   1.264       .  A
C1058      O1059   1.259       .  A
C1058      C1099   1.446       .  S
O1059     Al1061   1.899       .  S
O1060      C1062   1.261       .  A
O1060     Al1061   1.914       .  S
Al1061     O1069   1.836       .  S
Al1061     O1071   1.921       .  S
Al1061     O1070   1.766       .  S
C1062      O1075   1.283       .  A
C1062      C1150   1.509       .  S
O1063      C1073   1.270       .  A
O1063     Al1065   1.887       .  S
O1064      C1077   1.260       .  A
O1064     Al2658   1.894       .  S
Al1065     O1075   2.031       .  S
Al1065     O2641   1.857   1_554  S
Al1065     O2662   1.933   1_554  S
Al1065     O1070   1.762       .  S
O1066      C1073   1.275       .  A
O1066     Al1074   1.950       .  S
O1067      C1076   1.274       .  A
O1067     Al1074   1.982       .  S
O1068     Al1074   1.912       .  S
O1069      C1076   1.253       .  A
O1070     Al1074   1.770       .  S
O1071      C1072   1.264       .  A
C1072      O2641   1.247   1_554  A
C1072      C2766   1.418   1_554  S
C1073      C1117   1.470       .  S
Al1074     O2648   1.894   1_554  S
C1077      O1078   1.265       .  A
C1077      C1080   1.446       .  S
O1078     Al2649   1.933       .  S
O1079      C1094   1.247       .  A
O1079     Al1087   1.857       .  S
C1080      O1090   1.264       .  A
C1080      O1081   1.259       .  A
O1081     Al1083   1.899       .  S
O1082      C1084   1.261       .  A
O1082     Al1083   1.914       .  S
Al1083     O1091   1.836       .  S
Al1083     O1093   1.921       .  S
Al1083     O1092   1.766       .  S
C1084      O1097   1.283       .  A
C1084      C1172   1.509       .  S
O1085      C1095   1.270       .  A
O1085     Al1087   1.887       .  S
O1086      C1099   1.260       .  A
O1086     Al1096   1.894       .  S
Al1087     O1100   1.933       .  S
Al1087     O1097   2.031       .  S
Al1087     O1092   1.762       .  S
O1088      C1095   1.275       .  A
O1088     Al1096   1.950       .  S
O1089      C1098   1.274       .  A
O1089     Al1096   1.982       .  S
O1090     Al1096   1.912       .  S
O1091      C1098   1.253       .  A
O1092     Al1096   1.770       .  S
O1093      C1094   1.264       .  A
C1094      C1160   1.418       .  S
C1095      C1139   1.470       .  S
C1099      O1100   1.265       .  A
O1101      C1116   1.247       .  A
O1101     Al1109   1.857       .  S
C1102      O1112   1.264       .  A
C1102      O1103   1.259       .  A
C1102      C1143   1.446       .  S
O1103     Al1105   1.899       .  S
O1104      C1106   1.261       .  A
O1104     Al1105   1.915       .  S
Al1105     O2697   1.837       .  S
Al1105     O2699   1.921       .  S
Al1105     O2698   1.766       .  S
C1106      O2703   1.283       .  A
C1106      C1260   1.509       .  S
O1107      C1117   1.270       .  A
O1107     Al1109   1.886       .  S
O1108      C1121   1.260       .  A
O1108     Al1118   1.893       .  S
Al1109     O1122   1.934       .  S
Al1109     O1119   2.031       .  S
Al1109     O1114   1.762       .  S
O1110      C1117   1.275       .  A
O1110     Al1118   1.951       .  S
O1111      C1120   1.275       .  A
O1111     Al1118   1.984       .  S
O1112     Al2702   1.912       .  S
O1113      C1120   1.253       .  A
O1113     Al2689   1.837   1_554  S
O1114     Al1118   1.770       .  S
O1114     Al2689   1.766   1_554  S
O1115      C1116   1.264       .  A
O1115     Al2689   1.921   1_554  S
C1116      C1248   1.417       .  S
Al1118     O2696   1.912   1_554  S
O1119      C2690   1.282   1_554  A
C1120      C1472   1.475       .  S
C1121      O1122   1.265       .  A
C1121      C1124   1.446       .  S
O1123      C1138   1.247       .  A
O1123     Al1131   1.857       .  S
C1124      O1134   1.264       .  A
C1124      O1125   1.259       .  A
O1125     Al1127   1.899       .  S
O1126      C1128   1.261       .  A
O1126     Al1127   1.915       .  S
Al1127     O1135   1.837       .  S
Al1127     O1137   1.921       .  S
Al1127     O1136   1.766       .  S
C1128      O1141   1.282       .  A
C1128      C1238   1.509       .  S
O1129      C1139   1.270       .  A
O1129     Al1131   1.886       .  S
O1130      C1143   1.260       .  A
O1130     Al1140   1.893       .  S
Al1131     O1144   1.934       .  S
Al1131     O1141   2.031       .  S
Al1131     O1136   1.762       .  S
O1132      C1139   1.275       .  A
O1132     Al1140   1.951       .  S
O1133      C1142   1.275       .  A
O1133     Al1140   1.984       .  S
O1134     Al1140   1.912       .  S
O1135      C1142   1.253       .  A
O1136     Al1140   1.770       .  S
O1137      C1138   1.264       .  A
C1138      C1270   1.417       .  S
C1142      C1494   1.475       .  S
C1143      O1144   1.265       .  A
O1145      C1160   1.247       .  A
O1145     Al1153   1.857       .  S
C1146      O1156   1.264       .  A
C1146      O1147   1.259       .  A
C1146      C1187   1.446       .  S
O1147     Al1149   1.899       .  S
O1148      C1150   1.261       .  A
O1148     Al1149   1.914       .  S
Al1149     O1157   1.835       .  S
Al1149     O1159   1.922       .  S
Al1149     O1158   1.766       .  S
C1150      O1163   1.282       .  A
O1151      C1161   1.270       .  A
O1151     Al1153   1.885       .  S
O1152      C1165   1.260       .  A
O1152     Al1162   1.894       .  S
Al1153     O1166   1.933       .  S
Al1153     O1163   2.031       .  S
Al1153     O1158   1.762       .  S
O1154      C1161   1.275       .  A
O1154     Al1162   1.949       .  S
O1155      C1164   1.274       .  A
O1155     Al1162   1.981       .  S
O1156     Al1162   1.911       .  S
O1157      C1164   1.253       .  A
O1158     Al1162   1.770       .  S
O1159      C1160   1.264       .  A
C1161      C1205   1.469       .  S
C1165      O1166   1.265       .  A
C1165      C1168   1.446       .  S
O1167      C2766   1.247   1_554  A
O1167     Al2759   1.857   1_554  S
C1168      O1178   1.264       .  A
C1168      O1169   1.259       .  A
O1169     Al1171   1.899       .  S
O1170      C1172   1.261       .  A
O1170     Al1171   1.914       .  S
Al1171     O1179   1.835       .  S
Al1171     O1181   1.922       .  S
Al1171     O1180   1.766       .  S
C1172      O1185   1.282       .  A
O1173      C1183   1.270       .  A
O1173     Al1175   1.886       .  S
O1174      C1187   1.260       .  A
O1174     Al2768   1.894   1_554  S
Al1175     O1185   2.031       .  S
Al1175     O2751   1.857       .  S
Al1175     O2772   1.933       .  S
Al1175     O1180   1.762       .  S
O1176      C1183   1.275       .  A
O1176     Al1184   1.949       .  S
O1177      C1186   1.274       .  A
O1177     Al1184   1.981       .  S
O1178     Al1184   1.911       .  S
O1179      C1186   1.253       .  A
O1180     Al1184   1.770       .  S
O1181      C1182   1.264       .  A
C1182      O2751   1.247       .  A
C1182      C2656   1.418       .  S
C1183      C1227   1.469       .  S
Al1184     O2758   1.894       .  S
C1187      O1188   1.265       .  A
O1188     Al2759   1.933   1_554  S
O1189      C1204   1.247       .  A
O1189     Al1197   1.857       .  S
C1190      O1200   1.264       .  A
C1190      O1191   1.259       .  A
C1190      C1231   1.446       .  S
O1191     Al1193   1.899       .  S
O1192      C1194   1.261       .  A
O1192     Al1193   1.915       .  S
Al1193     O1201   1.837       .  S
Al1193     O1203   1.922       .  S
Al1193     O1202   1.766       .  S
C1194      O1207   1.282       .  A
C1194      C1304   1.509       .  S
O1195      C1205   1.270       .  A
O1195     Al1197   1.885       .  S
O1196      C1209   1.259       .  A
O1196     Al1206   1.894       .  S
Al1197     O1210   1.934       .  S
Al1197     O1207   2.030       .  S
Al1197     O1202   1.762       .  S
O1198      C1205   1.275       .  A
O1198     Al1206   1.950       .  S
O1199      C1208   1.274       .  A
O1199     Al1206   1.983       .  S
O1200     Al1206   1.911       .  S
O1201      C1208   1.253       .  A
O1202     Al1206   1.770       .  S
O1203      C1204   1.264       .  A
C1204      C1292   1.418       .  S
C1209      O1210   1.265       .  A
C1209      C1212   1.446       .  S
O1211      C1226   1.247       .  A
O1211     Al1219   1.857       .  S
C1212      O1222   1.264       .  A
C1212      O1213   1.259       .  A
O1213     Al1215   1.899       .  S
O1214      C1216   1.261       .  A
O1214     Al1215   1.915       .  S
Al1215     O2807   1.837   1_554  S
Al1215     O2809   1.922   1_554  S
Al1215     O2808   1.766   1_554  S
C1216      O2813   1.282   1_554  A
C1216      C1282   1.509       .  S
O1217      C1227   1.270       .  A
O1217     Al1219   1.885       .  S
O1218      C1231   1.259       .  A
O1218     Al1228   1.894       .  S
Al1219     O1232   1.934       .  S
Al1219     O1229   2.030       .  S
Al1219     O1224   1.762       .  S
O1220      C1227   1.275       .  A
O1220     Al1228   1.950       .  S
O1221      C1230   1.274       .  A
O1221     Al1228   1.983       .  S
O1222     Al2812   1.911   1_554  S
O1223      C1230   1.253       .  A
O1223     Al2799   1.837       .  S
O1224     Al1228   1.770       .  S
O1224     Al2799   1.765       .  S
O1225      C1226   1.264       .  A
O1225     Al2799   1.922       .  S
C1226      C1314   1.418       .  S
Al1228     O2806   1.911       .  S
O1229      C2800   1.282       .  A
C1231      O1232   1.265       .  A
O1233      C1248   1.247       .  A
O1233     Al1241   1.858       .  S
C1234      O1244   1.264       .  A
C1234      O1235   1.259       .  A
C1234      C1275   1.446       .  S
O1235     Al1237   1.898       .  S
O1236      C1238   1.261       .  A
O1236     Al1237   1.914       .  S
Al1237     O1245   1.837       .  S
Al1237     O1247   1.921       .  S
Al1237     O1246   1.766       .  S
C1238      O1251   1.283       .  A
O1239      C1249   1.270       .  A
O1239     Al1241   1.887       .  S
O1240      C1253   1.259       .  A
O1240     Al1250   1.893       .  S
Al1241     O1254   1.934       .  S
Al1241     O1251   2.031       .  S
Al1241     O1246   1.762       .  S
O1242      C1249   1.276       .  A
O1242     Al1250   1.952       .  S
O1243      C1252   1.275       .  A
O1243     Al1250   1.985       .  S
O1244     Al1250   1.912       .  S
O1245      C1252   1.253       .  A
O1246     Al1250   1.770       .  S
O1247      C1248   1.264       .  A
C1249      C1293   1.471       .  S
C1252      C1384   1.475       .  S
C1253      O1254   1.265       .  A
C1253      C2840   1.446   1_554  S
O1255      C1270   1.247       .  A
O1255     Al1263   1.858       .  S
C1256      O1266   1.264       .  A
C1256      O1257   1.259       .  A
C1256      C2837   1.446       .  S
O1257     Al1259   1.898       .  S
O1258      C1260   1.261       .  A
O1258     Al1259   1.914       .  S
Al1259     O1267   1.837       .  S
Al1259     O1269   1.921       .  S
Al1259     O1268   1.766       .  S
C1260      O1273   1.283       .  A
O1261      C1271   1.270       .  A
O1261     Al1263   1.887       .  S
O1262      C1275   1.259       .  A
O1262     Al1272   1.893       .  S
Al1263     O1276   1.934       .  S
Al1263     O1273   2.031       .  S
Al1263     O1268   1.762       .  S
O1264      C1271   1.276       .  A
O1264     Al1272   1.952       .  S
O1265      C1274   1.275       .  A
O1265     Al1272   1.985       .  S
O1266     Al1272   1.912       .  S
O1267      C1274   1.253       .  A
O1268     Al1272   1.770       .  S
O1269      C1270   1.264       .  A
C1271      C1315   1.471       .  S
C1274      C1406   1.475       .  S
C1275      O1276   1.265       .  A
O1277      C1292   1.247       .  A
O1277     Al1285   1.858       .  S
C1278      O1288   1.264   1_556  A
C1278      O1279   1.259   1_556  A
C1278      C2903   1.446       .  S
O1279     Al1281   1.899       .  S
O1280      C1282   1.260       .  A
O1280     Al1281   1.914       .  S
Al1281     O1289   1.837       .  S
Al1281     O1291   1.921       .  S
Al1281     O1290   1.766       .  S
C1282      O1295   1.283       .  A
O1283      C1293   1.270       .  A
O1283     Al1285   1.888       .  S
O1284      C1297   1.260       .  A
O1284     Al1294   1.893       .  S
Al1285     O1298   1.933       .  S
Al1285     O1295   2.031       .  S
Al1285     O1290   1.762       .  S
O1286      C1293   1.275       .  A
O1286     Al1294   1.951       .  S
O1287      C1296   1.275       .  A
O1287     Al1294   1.983       .  S
O1288     Al1294   1.912       .  S
O1289      C1296   1.253       .  A
O1290     Al1294   1.770       .  S
O1291      C1292   1.264       .  A
C1297      O1298   1.265       .  A
C1297      C1300   1.446       .  S
O1299      C1314   1.247       .  A
O1299     Al1307   1.858       .  S
C1300      O1310   1.264       .  A
C1300      O1301   1.259       .  A
O1301     Al1303   1.899       .  S
O1302      C1304   1.260       .  A
O1302     Al1303   1.914       .  S
Al1303     O1311   1.837       .  S
Al1303     O1313   1.921       .  S
Al1303     O1312   1.766       .  S
C1304      O1317   1.283       .  A
O1305      C1315   1.270       .  A
O1305     Al1307   1.888       .  S
O1306      C1319   1.260       .  A
O1306     Al1316   1.893       .  S
Al1307     O1320   1.933       .  S
Al1307     O1317   2.031       .  S
Al1307     O1312   1.762       .  S
O1308      C1315   1.275       .  A
O1308     Al1316   1.951       .  S
O1309      C1318   1.275       .  A
O1309     Al1316   1.983       .  S
O1310     Al1316   1.912       .  S
O1311      C1318   1.253       .  A
O1312     Al1316   1.770       .  S
O1313      C1314   1.264       .  A
C1319      O1320   1.265       .  A
C1319      C2862   1.446       .  S
O1321      C1336   1.259       .  A
O1321     Al1329   1.890       .  S
C1322      O1332   1.256       .  A
C1322      O1323   1.265       .  A
C1322      C1363   1.460       .  S
O1323     Al1325   1.921       .  S
O1324      C1326   1.254       .  A
O1324     Al1325   1.903       .  S
Al1325     O1333   1.852       .  S
Al1325     O1335   1.969       .  S
Al1325     O1334   1.750       .  S
C1326      O1339   1.269       .  A
C1326      C1546   1.479       .  S
O1327      C1337   1.267       .  A
O1327     Al1329   1.890       .  S
O1328      C1341   1.257       .  A
O1328     Al1338   1.900       .  S
Al1329     O1342   1.930       .  S
Al1329     O1339   1.984       .  S
Al1329     O1334   1.773       .  S
O1330      C1337   1.275       .  A
O1330     Al1338   1.949       .  S
O1331      C1340   1.269       .  A
O1331     Al1338   1.964       .  S
O1332     Al1338   1.894       .  S
O1333      C1340   1.258       .  A
O1334     Al1338   1.781       .  S
O1335      C1336   1.274       .  A
C1336      C1578   1.461       .  S
C1337      C1381   1.471   1_655  S
C1341      O1342   1.266       .  A
C1341      C2928   1.460   1_554  S
O1343      C1358   1.259       .  A
O1343     Al1351   1.890       .  S
C1344      O1354   1.256       .  A
C1344      O1345   1.265       .  A
C1344      C2925   1.460       .  S
O1345     Al1347   1.921       .  S
O1346      C1348   1.254       .  A
O1346     Al1347   1.903       .  S
Al1347     O1355   1.852       .  S
Al1347     O1357   1.969       .  S
Al1347     O1356   1.750       .  S
C1348      O1361   1.269       .  A
C1348      C1568   1.479       .  S
O1349      C1359   1.267       .  A
O1349     Al1351   1.890       .  S
O1350      C1363   1.257       .  A
O1350     Al1360   1.900       .  S
Al1351     O1364   1.930       .  S
Al1351     O1361   1.984       .  S
Al1351     O1356   1.773       .  S
O1352      C1359   1.275       .  A
O1352     Al1360   1.949       .  S
O1353      C1362   1.269       .  A
O1353     Al1360   1.964       .  S
O1354     Al1360   1.894       .  S
O1355      C1362   1.258       .  A
O1356     Al1360   1.781       .  S
O1357      C1358   1.274       .  A
C1358      C1556   1.461       .  S
C1359      C1403   1.471   1_655  S
C1363      O1364   1.266       .  A
O1365      C1380   1.259       .  A
O1365     Al1373   1.890       .  S
C1366      O1376   1.256       .  A
C1366      O1367   1.265       .  A
C1366      C2991   1.460   1_554  S
O1367     Al1369   1.922       .  S
O1368      C1370   1.254       .  A
O1368     Al1369   1.903       .  S
Al1369     O1377   1.852       .  S
Al1369     O1379   1.969       .  S
Al1369     O1378   1.750       .  S
C1370      O1383   1.269       .  A
C1370      C1458   1.479       .  S
O1371      C1381   1.267       .  A
O1371     Al1373   1.890       .  S
O1372      C1385   1.257       .  A
O1372     Al1382   1.900       .  S
Al1373     O1386   1.930       .  S
Al1373     O1383   1.984       .  S
Al1373     O1378   1.773       .  S
O1374      C1381   1.275       .  A
O1374     Al1382   1.948       .  S
O1375      C1384   1.268       .  A
O1375     Al1382   1.963       .  S
O1376     Al1382   1.894       .  S
O1377      C1384   1.258       .  A
O1378     Al1382   1.782       .  S
O1379      C1380   1.274       .  A
C1380      C1490   1.461       .  S
C1385      O1386   1.266       .  A
C1385      C1388   1.460       .  S
O1387      C1402   1.259       .  A
O1387     Al1395   1.890       .  S
C1388      O1398   1.256       .  A
C1388      O1389   1.265       .  A
O1389     Al1391   1.922       .  S
O1390      C1392   1.254       .  A
O1390     Al1391   1.903       .  S
Al1391     O1399   1.852       .  S
Al1391     O1401   1.969       .  S
Al1391     O1400   1.750       .  S
C1392      O1405   1.269       .  A
C1392      C1480   1.479       .  S
O1393      C1403   1.267       .  A
O1393     Al1395   1.890       .  S
O1394      C1407   1.257       .  A
O1394     Al1404   1.900       .  S
Al1395     O1408   1.930       .  S
Al1395     O1405   1.984       .  S
Al1395     O1400   1.773       .  S
O1396      C1403   1.275       .  A
O1396     Al1404   1.948       .  S
O1397      C1406   1.268       .  A
O1397     Al1404   1.963       .  S
O1398     Al1404   1.894       .  S
O1399      C1406   1.258       .  A
O1400     Al1404   1.782       .  S
O1401      C1402   1.274       .  A
C1402      C1468   1.462       .  S
C1407      O1408   1.266       .  A
C1407      C2950   1.460       .  S
O1409      C1424   1.259       .  A
O1409     Al1417   1.890       .  S
C1410      O1420   1.256       .  A
C1410      O1411   1.265       .  A
C1410      C1451   1.460       .  S
O1411     Al2997   1.921       .  S
O1412      C2998   1.254       .  A
O1412     Al2997   1.903       .  S
Al1413     O1421   1.851       .  S
Al1413     O1423   1.969       .  S
Al1413     O2995   1.921   1_554  S
Al1413     O2996   1.903   1_554  S
Al1413     O1422   1.750       .  S
C1414      O1427   1.269       .  A
C1414      O2996   1.254   1_554  A
C1414      C3108   1.479   1_454  S
O1415      C1425   1.267       .  A
O1415     Al1417   1.890       .  S
O1416      C1429   1.257       .  A
O1416     Al1426   1.900       .  S
Al1417     O1430   1.930       .  S
Al1417     O1427   1.984       .  S
Al1417     O1422   1.773       .  S
O1418      C1425   1.275       .  A
O1418     Al1426   1.949       .  S
O1419      C1428   1.269       .  A
O1419     Al1426   1.964       .  S
O1420     Al3010   1.894       .  S
O1421      C1428   1.258       .  A
O1422     Al1426   1.781       .  S
O1423      C1424   1.274       .  A
C1424      C1512   1.461   1_455  S
C1425      C1469   1.471       .  S
Al1426     O3004   1.894   1_554  S
C1429      O1430   1.266       .  A
C1429      C1432   1.460       .  S
O1431      C1446   1.259       .  A
O1431     Al1439   1.890       .  S
C1432      O1442   1.256       .  A
C1432      O1433   1.265       .  A
O1433     Al1435   1.921       .  S
O1434      C1436   1.254       .  A
O1434     Al1435   1.903       .  S
Al1435     O1443   1.851       .  S
Al1435     O1445   1.969       .  S
Al1435     O1444   1.750       .  S
C1436      O1449   1.269       .  A
C1436      C1502   1.479   1_455  S
O1437      C1447   1.267       .  A
O1437     Al1439   1.890       .  S
O1438      C1451   1.257       .  A
O1438     Al1448   1.900       .  S
Al1439     O1452   1.930       .  S
Al1439     O1449   1.984       .  S
Al1439     O1444   1.773       .  S
O1440      C1447   1.275       .  A
O1440     Al1448   1.949       .  S
O1441      C1450   1.269       .  A
O1441     Al1448   1.964       .  S
O1442     Al1448   1.894       .  S
O1443      C1450   1.258       .  A
O1444     Al1448   1.781       .  S
O1445      C1446   1.274       .  A
C1446      C1534   1.461   1_455  S
C1447      C1491   1.471       .  S
C1451      O1452   1.266       .  A
O1453      C1468   1.259       .  A
O1453     Al1461   1.890       .  S
C1454      O1464   1.256       .  A
C1454      O1455   1.265       .  A
C1454      C1495   1.460       .  S
O1455     Al1457   1.922       .  S
O1456      C1458   1.254       .  A
O1456     Al1457   1.903       .  S
Al1457     O1465   1.851       .  S
Al1457     O1467   1.969       .  S
Al1457     O1466   1.750       .  S
C1458      O1471   1.269       .  A
O1459      C1469   1.267       .  A
O1459     Al3045   1.890   1_554  S
O1460      C1473   1.257       .  A
O1460     Al3054   1.900       .  S
Al1461     O1474   1.930       .  S
Al1461     O3043   1.890       .  S
Al1461     O3055   1.984       .  S
Al1461     O3050   1.773       .  S
O1462      C1469   1.275       .  A
O1462     Al1470   1.949       .  S
O1463      C1472   1.269       .  A
O1463     Al1470   1.964       .  S
O1464     Al1470   1.894       .  S
O1465      C1472   1.258       .  A
O1466     Al1470   1.782       .  S
O1466     Al3045   1.773   1_554  S
O1467      C3052   1.274   1_554  A
C1468      O3051   1.274       .  A
Al1470     O3044   1.900   1_554  S
O1471     Al3045   1.984   1_554  S
C1473      O1474   1.266       .  A
C1473      C1476   1.460       .  S
O1475      C1490   1.259       .  A
O1475     Al1483   1.890       .  S
C1476      O1486   1.256       .  A
C1476      O1477   1.265       .  A
O1477     Al1479   1.922       .  S
O1478      C1480   1.254       .  A
O1478     Al1479   1.903       .  S
Al1479     O1487   1.852       .  S
Al1479     O1489   1.969       .  S
Al1479     O1488   1.750       .  S
C1480      O1493   1.269       .  A
O1481      C1491   1.267       .  A
O1481     Al1483   1.890       .  S
O1482      C1495   1.257       .  A
O1482     Al1492   1.900       .  S
Al1483     O1496   1.930       .  S
Al1483     O1493   1.984       .  S
Al1483     O1488   1.773       .  S
O1484      C1491   1.275       .  A
O1484     Al1492   1.949       .  S
O1485      C1494   1.269       .  A
O1485     Al1492   1.964       .  S
O1486     Al1492   1.894       .  S
O1487      C1494   1.258       .  A
O1488     Al1492   1.782       .  S
O1489      C1490   1.274       .  A
C1495      O1496   1.266       .  A
O1497      C1512   1.259       .  A
O1497     Al1505   1.889       .  S
C1498      O1508   1.256       .  A
C1498      O1499   1.265       .  A
C1498      C1539   1.460       .  S
O1499     Al1501   1.921       .  S
O1500      C1502   1.254       .  A
O1500     Al1501   1.903       .  S
Al1501     O1509   1.851       .  S
Al1501     O1511   1.969       .  S
Al1501     O1510   1.750       .  S
C1502      O1515   1.269       .  A
O1503      C1513   1.267       .  A
O1503     Al1505   1.889       .  S
O1504      C1517   1.257       .  A
O1504     Al1514   1.900       .  S
Al1505     O1518   1.929       .  S
Al1505     O1515   1.984       .  S
Al1505     O1510   1.773       .  S
O1506      C1513   1.275       .  A
O1506     Al1514   1.947       .  S
O1507      C1516   1.268       .  A
O1507     Al1514   1.962       .  S
O1508     Al1514   1.894       .  S
O1509      C1516   1.258       .  A
O1510     Al1514   1.781       .  S
O1511      C1512   1.274       .  A
C1513      C1557   1.469       .  S
C1517      O1518   1.266       .  A
C1517      C1520   1.460       .  S
O1519      C1534   1.259       .  A
O1519     Al1527   1.889       .  S
C1520      O1530   1.256       .  A
C1520      O1521   1.265       .  A
O1521     Al3107   1.921   1_554  S
O1522      C3108   1.254   1_554  A
O1522     Al3107   1.903   1_554  S
Al1523     O1531   1.851       .  S
Al1523     O1533   1.969       .  S
Al1523     O3105   1.921       .  S
Al1523     O3106   1.903       .  S
Al1523     O1532   1.750       .  S
C1524      O1537   1.269       .  A
C1524      O3106   1.254       .  A
C1524      C2998   1.479   1_655  S
O1525      C1535   1.267       .  A
O1525     Al1527   1.889       .  S
O1526      C1539   1.257       .  A
O1526     Al1536   1.900       .  S
Al1527     O1540   1.929       .  S
Al1527     O1537   1.984       .  S
Al1527     O1532   1.773       .  S
O1528      C1535   1.275       .  A
O1528     Al1536   1.947       .  S
O1529      C1538   1.268       .  A
O1529     Al1536   1.962       .  S
O1530     Al3120   1.894   1_554  S
O1531      C1538   1.258       .  A
O1532     Al1536   1.781       .  S
O1533      C1534   1.274       .  A
C1535      C1579   1.469       .  S
Al1536     O3114   1.894       .  S
C1539      O1540   1.266       .  A
O1541      C1556   1.259       .  A
O1541     Al1549   1.890       .  S
C1542      O1552   1.256       .  A
C1542      O1543   1.265       .  A
C1542      C1583   1.460       .  S
O1543     Al1545   1.921       .  S
O1544      C1546   1.254       .  A
O1544     Al1545   1.903       .  S
Al1545     O1553   1.851       .  S
Al1545     O1555   1.969       .  S
Al1545     O1554   1.750       .  S
C1546      O1559   1.269       .  A
O1547      C1557   1.267       .  A
O1547     Al1549   1.889       .  S
O1548      C1561   1.257       .  A
O1548     Al1558   1.900       .  S
Al1549     O1562   1.930       .  S
Al1549     O1559   1.984       .  S
Al1549     O1554   1.773       .  S
O1550      C1557   1.275       .  A
O1550     Al1558   1.947       .  S
O1551      C1560   1.268       .  A
O1551     Al1558   1.963       .  S
O1552     Al1558   1.894       .  S
O1553      C1560   1.258       .  A
O1554     Al1558   1.781       .  S
O1555      C1556   1.274       .  A
C1561      O1562   1.266       .  A
C1561      C1564   1.460       .  S
O1563      C1578   1.259       .  A
O1563     Al1571   1.890       .  S
C1564      O1574   1.256       .  A
C1564      O1565   1.265       .  A
O1565     Al1567   1.921       .  S
O1566      C1568   1.254       .  A
O1566     Al1567   1.903       .  S
Al1567     O1575   1.851       .  S
Al1567     O1577   1.969       .  S
Al1567     O1576   1.750       .  S
C1568      O1581   1.269       .  A
O1569      C1579   1.267       .  A
O1569     Al3155   1.889       .  S
O1570      C1583   1.257       .  A
O1570     Al3164   1.900   1_554  S
Al1571     O1584   1.930       .  S
Al1571     O3153   1.889   1_554  S
Al1571     O3165   1.984   1_554  S
Al1571     O3160   1.773   1_554  S
O1572      C1579   1.275       .  A
O1572     Al1580   1.947       .  S
O1573      C1582   1.268       .  A
O1573     Al1580   1.963       .  S
O1574     Al1580   1.894       .  S
O1575      C1582   1.258       .  A
O1576     Al1580   1.781       .  S
O1576     Al3155   1.773       .  S
O1577      C3162   1.274       .  A
C1578      O3161   1.274   1_554  A
Al1580     O3154   1.900       .  S
O1581     Al3155   1.984       .  S
C1583      O1584   1.266       .  A
O1585      C1600   1.259       .  A
O1585     Al1593   1.890       .  S
C1586      O1596   1.256       .  A
C1586      O1587   1.265       .  A
C1586      C1627   1.460       .  S
O1587     Al1589   1.921       .  S
O1588      C1590   1.254       .  A
O1588     Al1589   1.903       .  S
Al1589     O1597   1.851       .  S
Al1589     O1599   1.969       .  S
Al1589     O1598   1.750       .  S
C1590      O1603   1.269       .  A
C1590      C1678   1.479       .  S
O1591      C1601   1.267       .  A
O1591     Al1593   1.890       .  S
O1592      C1605   1.257       .  A
O1592     Al1602   1.900       .  S
Al1593     O1606   1.930       .  S
Al1593     O1603   1.984       .  S
Al1593     O1598   1.773       .  S
O1594      C1601   1.275       .  A
O1594     Al1602   1.948       .  S
O1595      C1604   1.268       .  A
O1595     Al1602   1.963       .  S
O1596     Al1602   1.894       .  S
O1597      C1604   1.258       .  A
O1598     Al1602   1.781       .  S
O1599      C1600   1.274       .  A
C1600      C1710   1.461       .  S
C1601      C1645   1.470   1_545  S
C1604      C2880   1.474       .  S
C1605      O1606   1.266       .  A
O1607      C1622   1.259       .  A
O1607     Al1615   1.890       .  S
C1608      O1618   1.256       .  A
C1608      O1609   1.265       .  A
O1609     Al1611   1.921       .  S
O1610      C1612   1.254       .  A
O1610     Al1611   1.903       .  S
Al1611     O1619   1.851       .  S
Al1611     O1621   1.969       .  S
Al1611     O1620   1.750       .  S
C1612      O1625   1.269       .  A
C1612      C1700   1.479       .  S
O1613      C1623   1.267       .  A
O1613     Al1615   1.890       .  S
O1614      C1627   1.257       .  A
O1614     Al1624   1.900       .  S
Al1615     O1628   1.930       .  S
Al1615     O1625   1.984       .  S
Al1615     O1620   1.773       .  S
O1616      C1623   1.275       .  A
O1616     Al1624   1.948       .  S
O1617      C1626   1.268       .  A
O1617     Al1624   1.963       .  S
O1618     Al1624   1.894       .  S
O1619      C1626   1.258       .  A
O1620     Al1624   1.781       .  S
O1621      C1622   1.274       .  A
C1622      C1688   1.461       .  S
C1623      C1667   1.470   1_545  S
C1626      C2902   1.474       .  S
C1627      O1628   1.266       .  A
O1629      C1644   1.259       .  A
O1629     Al1637   1.890       .  S
C1630      O1640   1.256       .  A
C1630      O1631   1.265       .  A
O1631     Al1633   1.921       .  S
O1632      C1634   1.254       .  A
O1632     Al1633   1.903       .  S
Al1633     O1641   1.851       .  S
Al1633     O1643   1.969       .  S
Al1633     O1642   1.750       .  S
C1634      O1647   1.269       .  A
C1634      C1810   1.479       .  S
O1635      C1645   1.267       .  A
O1635     Al1637   1.889       .  S
O1636      C1649   1.257       .  A
O1636     Al1646   1.900       .  S
Al1637     O1650   1.930       .  S
Al1637     O1647   1.984       .  S
Al1637     O1642   1.773       .  S
O1638      C1645   1.275       .  A
O1638     Al1646   1.948       .  S
O1639      C1648   1.269       .  A
O1639     Al1646   1.964       .  S
O1640     Al1646   1.894       .  S
O1641      C1648   1.258       .  A
O1642     Al1646   1.781       .  S
O1643      C1644   1.274       .  A
C1644      C1842   1.461       .  S
C1648      C2176   1.475       .  S
C1649      O1650   1.266       .  A
C1649      C1652   1.460       .  S
O1651      C1666   1.259       .  A
O1651     Al1659   1.890       .  S
C1652      O1662   1.256       .  A
C1652      O1653   1.265       .  A
O1653     Al1655   1.921       .  S
O1654      C1656   1.254       .  A
O1654     Al1655   1.903       .  S
Al1655     O1663   1.851       .  S
Al1655     O1665   1.969       .  S
Al1655     O1664   1.750       .  S
C1656      O1669   1.269       .  A
C1656      C1832   1.479       .  S
O1657      C1667   1.267       .  A
O1657     Al1659   1.889       .  S
O1658      C1671   1.257       .  A
O1658     Al1668   1.900       .  S
Al1659     O1672   1.930       .  S
Al1659     O1669   1.984       .  S
Al1659     O1664   1.773       .  S
O1660      C1667   1.275       .  A
O1660     Al1668   1.948       .  S
O1661      C1670   1.269       .  A
O1661     Al1668   1.964       .  S
O1662     Al1668   1.894       .  S
O1663      C1670   1.258       .  A
O1664     Al1668   1.781       .  S
O1665      C1666   1.274       .  A
C1666      C1820   1.461       .  S
C1670      C2198   1.475       .  S
C1671      O1672   1.266       .  A
O1673      C1688   1.259       .  A
O1673     Al1681   1.889       .  S
C1674      O1684   1.256       .  A
C1674      O1675   1.265       .  A
C1674      C1715   1.460       .  S
O1675     Al1677   1.921       .  S
O1676      C1678   1.254       .  A
O1676     Al1677   1.903       .  S
Al1677     O1685   1.851       .  S
Al1677     O1687   1.969       .  S
Al1677     O1686   1.750       .  S
C1678      O1691   1.269       .  A
O1679      C1689   1.266       .  A
O1679     Al1681   1.888       .  S
O1680      C1693   1.257       .  A
O1680     Al1690   1.900       .  S
Al1681     O1694   1.929       .  S
Al1681     O1691   1.984       .  S
Al1681     O1686   1.773       .  S
O1682      C1689   1.275       .  A
O1682     Al1690   1.948       .  S
O1683      C1692   1.268       .  A
O1683     Al1690   1.963       .  S
O1684     Al1690   1.894       .  S
O1685      C1692   1.258       .  A
O1686     Al1690   1.781       .  S
O1687      C1688   1.274       .  A
C1689      C1733   1.469       .  S
C1692      C2792   1.474       .  S
C1693      O1694   1.266       .  A
C1693      C1696   1.460       .  S
O1695      C1710   1.259       .  A
O1695     Al1703   1.889       .  S
C1696      O1706   1.256       .  A
C1696      O1697   1.265       .  A
O1697     Al1699   1.921       .  S
O1698      C1700   1.254       .  A
O1698     Al1699   1.903       .  S
Al1699     O1707   1.851       .  S
Al1699     O1709   1.969       .  S
Al1699     O1708   1.750       .  S
C1700      O1713   1.269       .  A
O1701      C1711   1.266       .  A
O1702      C1715   1.257       .  A
Al1703     O1716   1.929       .  S
O1704      C1711   1.275       .  A
O1704     Al1712   1.948       .  S
O1705      C1714   1.268       .  A
O1705     Al1712   1.963       .  S
O1706     Al1712   1.894       .  S
O1707      C1714   1.258       .  A
O1708     Al1712   1.781       .  S
C1711      C1755   1.469       .  S
C1714      C2814   1.474       .  S
C1715      O1716   1.266       .  A
O1717      C1732   1.259       .  A
O1717     Al1725   1.889       .  S
C1718      O1728   1.257       .  A
C1718      O1719   1.265       .  A
C1718      C1759   1.460       .  S
O1719     Al1721   1.921       .  S
O1720      C1722   1.254       .  A
O1720     Al1721   1.903       .  S
Al1721     O1729   1.851       .  S
Al1721     O1731   1.969       .  S
Al1721     O1730   1.750       .  S
C1722      O1735   1.269       .  A
C1722      C1788   1.479   1_545  S
O1723      C1733   1.267       .  A
O1723     Al1725   1.889       .  S
O1724      C1737   1.257       .  A
O1724     Al1734   1.900       .  S
Al1725     O1738   1.930       .  S
Al1725     O1735   1.984       .  S
Al1725     O1730   1.773       .  S
O1726      C1733   1.275       .  A
O1726     Al1734   1.947       .  S
O1727      C1736   1.268       .  A
O1727     Al1734   1.962       .  S
O1728     Al1734   1.895       .  S
O1729      C1736   1.258       .  A
O1730     Al1734   1.781       .  S
O1731      C1732   1.274       .  A
C1732      C1776   1.460   1_545  S
C1736      C2572   1.474       .  S
C1737      O1738   1.266       .  A
C1737      C1740   1.460       .  S
O1739      C1754   1.259       .  A
O1739     Al1747   1.889       .  S
C1740      O1750   1.257       .  A
C1740      O1741   1.265       .  A
Al1743     O1751   1.851       .  S
Al1743     O1753   1.969       .  S
Al1743     O1752   1.750       .  S
C1744      O1757   1.269       .  A
O1745      C1755   1.267       .  A
O1745     Al1747   1.889       .  S
O1746      C1759   1.257       .  A
O1746     Al1756   1.900       .  S
Al1747     O1760   1.930       .  S
Al1747     O1757   1.984       .  S
Al1747     O1752   1.773       .  S
O1748      C1755   1.275       .  A
O1748     Al1756   1.947       .  S
O1749      C1758   1.268       .  A
O1749     Al1756   1.962       .  S
O1751      C1758   1.258       .  A
O1752     Al1756   1.781       .  S
O1753      C1754   1.274       .  A
C1754      C1798   1.460   1_545  S
C1758      C2594   1.474       .  S
C1759      O1760   1.266       .  A
O1761      C1776   1.259       .  A
O1761     Al1769   1.889       .  S
C1762      O1772   1.256       .  A
C1762      O1763   1.265       .  A
C1762      C1803   1.460       .  S
Al1765     O1773   1.851       .  S
Al1765     O1775   1.969       .  S
Al1765     O1774   1.750       .  S
C1766      O1779   1.269       .  A
O1767      C1777   1.267       .  A
O1767     Al1769   1.889       .  S
O1768      C1781   1.257       .  A
O1768     Al1778   1.900       .  S
Al1769     O1782   1.930       .  S
Al1769     O1779   1.984       .  S
Al1769     O1774   1.773       .  S
O1770      C1777   1.275       .  A
O1770     Al1778   1.948       .  S
O1771      C1780   1.268       .  A
O1771     Al1778   1.963       .  S
O1773      C1780   1.258       .  A
O1774     Al1778   1.781       .  S
O1775      C1776   1.274       .  A
C1777      C1821   1.470       .  S
C1780      C2528   1.474       .  S
C1781      O1782   1.266       .  A
C1781      C1784   1.460       .  S
O1783      C1798   1.259       .  A
O1783     Al1791   1.889       .  S
C1784      O1794   1.256       .  A
C1784      O1785   1.265       .  A
O1785     Al1787   1.921       .  S
O1786      C1788   1.254       .  A
O1786     Al1787   1.903       .  S
Al1787     O1795   1.851       .  S
Al1787     O1797   1.969       .  S
Al1787     O1796   1.750       .  S
C1788      O1801   1.269       .  A
O1789      C1799   1.267       .  A
O1789     Al1791   1.889       .  S
O1790      C1803   1.257       .  A
O1790     Al1800   1.900       .  S
Al1791     O1804   1.930       .  S
Al1791     O1801   1.984       .  S
Al1791     O1796   1.773       .  S
O1792      C1799   1.275       .  A
O1792     Al1800   1.948       .  S
O1793      C1802   1.268       .  A
O1793     Al1800   1.963       .  S
O1794     Al1800   1.894       .  S
O1795      C1802   1.258       .  A
O1796     Al1800   1.781       .  S
O1797      C1798   1.274       .  A
C1799      C1843   1.470       .  S
C1802      C2550   1.474       .  S
C1803      O1804   1.266       .  A
O1805      C1820   1.259       .  A
O1805     Al1813   1.890       .  S
C1806      O1816   1.256       .  A
C1806      O1807   1.265       .  A
C1806      C1847   1.460       .  S
O1807     Al1809   1.922       .  S
O1808      C1810   1.254       .  A
O1808     Al1809   1.903       .  S
Al1809     O1817   1.851       .  S
Al1809     O1819   1.969       .  S
Al1809     O1818   1.750       .  S
C1810      O1823   1.269       .  A
O1811      C1821   1.267       .  A
O1812      C1825   1.257       .  A
Al1813     O1826   1.929       .  S
O1814      C1821   1.275       .  A
O1814     Al1822   1.947       .  S
O1815      C1824   1.268       .  A
O1815     Al1822   1.962       .  S
O1816     Al1822   1.894       .  S
O1817      C1824   1.258       .  A
O1818     Al1822   1.782       .  S
C1824      C2308   1.474       .  S
C1825      O1826   1.266       .  A
C1825      C1828   1.460       .  S
O1827      C1842   1.259       .  A
O1827     Al1835   1.890       .  S
C1828      O1838   1.256       .  A
C1828      O1829   1.265       .  A
O1829     Al1831   1.922       .  S
O1830      C1832   1.254       .  A
O1830     Al1831   1.903       .  S
Al1831     O1839   1.851       .  S
Al1831     O1841   1.969       .  S
Al1831     O1840   1.750       .  S
C1832      O1845   1.269       .  A
O1833      C1843   1.267       .  A
O1833     Al1835   1.889       .  S
O1834      C1847   1.257       .  A
O1834     Al1844   1.900       .  S
Al1835     O1848   1.929       .  S
Al1835     O1845   1.984       .  S
Al1835     O1840   1.773       .  S
O1836      C1843   1.275       .  A
O1836     Al1844   1.947       .  S
O1837      C1846   1.268       .  A
O1837     Al1844   1.962       .  S
O1838     Al1844   1.894       .  S
O1839      C1846   1.258       .  A
O1840     Al1844   1.782       .  S
O1841      C1842   1.274       .  A
C1846      C2330   1.474       .  S
C1847      O1848   1.266       .  A
O1849      C1864   1.259       .  A
O1849     Al1857   1.889       .  S
C1850      O1860   1.256       .  A
C1850      O1851   1.265       .  A
C1850      C1891   1.459       .  S
O1851     Al1853   1.921       .  S
O1852      C1854   1.254       .  A
O1852     Al1853   1.903       .  S
Al1853     O1861   1.850       .  S
Al1853     O1863   1.969       .  S
Al1853     O1862   1.750       .  S
C1854      O1867   1.269       .  A
C1854      C2074   1.479       .  S
O1855      C1865   1.266       .  A
O1855     Al1857   1.887       .  S
O1856      C1869   1.257       .  A
O1856     Al1866   1.900       .  S
Al1857     O1870   1.929       .  S
Al1857     O1867   1.984       .  S
Al1857     O1862   1.773       .  S
O1858      C1865   1.275       .  A
O1858     Al1866   1.946       .  S
O1859      C1868   1.268       .  A
O1859     Al1866   1.962       .  S
O1860     Al1866   1.894       .  S
O1861      C1868   1.258       .  A
O1862     Al1866   1.781       .  S
O1863      C1864   1.274       .  A
C1864      C2106   1.460       .  S
C1865      C1909   1.468       .  S
C1868      C2264   1.473       .  S
C1869      O1870   1.266       .  A
C1869      C1872   1.459       .  S
O1871      C1886   1.259       .  A
O1871     Al1879   1.889       .  S
C1872      O1882   1.256       .  A
C1872      O1873   1.265       .  A
O1873     Al1875   1.921       .  S
O1874      C1876   1.254       .  A
O1874     Al1875   1.903       .  S
Al1875     O1883   1.850       .  S
Al1875     O1885   1.969       .  S
Al1875     O1884   1.750       .  S
C1876      O1889   1.269       .  A
C1876      C2096   1.479       .  S
O1877      C1887   1.266       .  A
O1878      C1891   1.257       .  A
Al1879     O1892   1.929       .  S
O1880      C1887   1.275       .  A
O1880     Al1888   1.946       .  S
O1881      C1890   1.268       .  A
O1881     Al1888   1.962       .  S
O1882     Al1888   1.894       .  S
O1883      C1890   1.258       .  A
O1884     Al1888   1.781       .  S
C1886      C2084   1.460       .  S
C1887      C1931   1.468       .  S
C1890      C2286   1.473       .  S
C1891      O1892   1.266       .  A
O1893      C1908   1.259       .  A
O1893     Al1901   1.889       .  S
C1894      O1904   1.257       .  A
C1894      O1895   1.265       .  A
C1894      C1935   1.460       .  S
O1895     Al1897   1.921       .  S
O1896      C1898   1.254       .  A
O1896     Al1897   1.903       .  S
Al1897     O1905   1.850       .  S
Al1897     O1907   1.969       .  S
Al1897     O1906   1.750       .  S
C1898      O1911   1.269       .  A
C1898      C2008   1.479       .  S
O1899      C1909   1.266       .  A
O1899     Al1901   1.888       .  S
O1900      C1913   1.257       .  A
O1900     Al1910   1.900       .  S
Al1901     O1914   1.930       .  S
Al1901     O1911   1.984       .  S
Al1901     O1906   1.773       .  S
O1902      C1909   1.275       .  A
O1902     Al1910   1.945       .  S
O1903      C1912   1.268       .  A
O1903     Al1910   1.961       .  S
O1904     Al1910   1.894       .  S
O1905      C1912   1.258       .  A
O1906     Al1910   1.781       .  S
O1907      C1908   1.274       .  A
C1908      C1996   1.460       .  S
C1912      C2748   1.473       .  S
C1913      O1914   1.266       .  A
C1913      C1916   1.460       .  S
O1915      C1930   1.259       .  A
O1915     Al1923   1.889       .  S
C1916      O1926   1.257       .  A
C1916      O1917   1.265       .  A
Al1919     O1927   1.850       .  S
Al1919     O1929   1.969       .  S
Al1919     O1928   1.750       .  S
C1920      O1933   1.269       .  A
O1921      C1931   1.266       .  A
O1921     Al1923   1.888       .  S
O1922      C1935   1.257       .  A
O1922     Al1932   1.900       .  S
Al1923     O1936   1.930       .  S
Al1923     O1933   1.984       .  S
Al1923     O1928   1.773       .  S
O1924      C1931   1.275       .  A
O1924     Al1932   1.945       .  S
O1925      C1934   1.268       .  A
O1925     Al1932   1.961       .  S
O1927      C1934   1.258       .  A
O1928     Al1932   1.781       .  S
O1929      C1930   1.274       .  A
C1930      C2018   1.460       .  S
C1934      C2770   1.473       .  S
C1935      O1936   1.266       .  A
O1937      C1952   1.259       .  A
O1937     Al1945   1.889       .  S
C1938      O1948   1.256       .  A
C1938      O1939   1.265       .  A
C1938      C1979   1.460       .  S
O1939     Al1941   1.921       .  S
O1940      C1942   1.254       .  A
O1940     Al1941   1.903       .  S
Al1941     O1949   1.851       .  S
Al1941     O1951   1.969       .  S
Al1941     O1950   1.749       .  S
C1942      O1955   1.269       .  A
C1942      C2030   1.479       .  S
O1943      C1953   1.267       .  A
O1944      C1957   1.257       .  A
Al1945     O1958   1.929       .  S
O1946      C1953   1.275       .  A
O1946     Al1954   1.947       .  S
O1947      C1956   1.268       .  A
O1947     Al1954   1.963       .  S
O1948     Al1954   1.894       .  S
O1949      C1956   1.258       .  A
O1950     Al1954   1.781       .  S
C1952      C2062   1.461       .  S
C1953      C1997   1.469       .  S
C1956      C2484   1.474       .  S
C1957      O1958   1.266       .  A
C1957      C1960   1.460       .  S
O1959      C1974   1.259       .  A
O1959     Al1967   1.889       .  S
C1960      O1970   1.256       .  A
C1960      O1961   1.265       .  A
O1961     Al1963   1.921       .  S
O1962      C1964   1.254       .  A
O1962     Al1963   1.903       .  S
Al1963     O1971   1.851       .  S
Al1963     O1973   1.969       .  S
Al1963     O1972   1.749       .  S
C1964      O1977   1.269       .  A
C1964      C2052   1.479       .  S
O1965      C1975   1.267       .  A
O1965     Al1967   1.888       .  S
O1966      C1979   1.257       .  A
O1966     Al1976   1.901       .  S
Al1967     O1980   1.929       .  S
Al1967     O1977   1.984       .  S
Al1967     O1972   1.773       .  S
O1968      C1975   1.275       .  A
O1968     Al1976   1.947       .  S
O1969      C1978   1.268       .  A
O1969     Al1976   1.963       .  S
O1970     Al1976   1.894       .  S
O1971      C1978   1.258       .  A
O1972     Al1976   1.781       .  S
O1973      C1974   1.274       .  A
C1974      C2040   1.461       .  S
C1975      C2019   1.469       .  S
C1978      C2506   1.474       .  S
C1979      O1980   1.266       .  A
O1981      C1996   1.259       .  A
O1981     Al1989   1.889       .  S
C1982      O1992   1.256       .  A
C1982      O1983   1.265       .  A
C1982      C2023   1.460       .  S
Al1985     O1993   1.850       .  S
Al1985     O1995   1.969       .  S
Al1985     O1994   1.750       .  S
C1986      O1999   1.269       .  A
O1987      C1997   1.267       .  A
O1987     Al1989   1.888       .  S
O1988      C2001   1.257       .  A
O1988     Al1998   1.900       .  S
Al1989     O2002   1.930       .  S
Al1989     O1999   1.984       .  S
Al1989     O1994   1.773       .  S
O1990      C1997   1.275       .  A
O1990     Al1998   1.946       .  S
O1991      C2000   1.268       .  A
O1991     Al1998   1.962       .  S
O1993      C2000   1.258       .  A
O1994     Al1998   1.781       .  S
O1995      C1996   1.274       .  A
C2000      C2660   1.473       .  S
C2001      O2002   1.266       .  A
C2001      C2004   1.460       .  S
O2003      C2018   1.259       .  A
O2003     Al2011   1.889       .  S
C2004      O2014   1.256       .  A
C2004      O2005   1.265       .  A
O2005     Al2007   1.921       .  S
O2006      C2008   1.254       .  A
O2006     Al2007   1.903       .  S
Al2007     O2015   1.850       .  S
Al2007     O2017   1.969       .  S
Al2007     O2016   1.750       .  S
C2008      O2021   1.269       .  A
O2009      C2019   1.267       .  A
O2009     Al2011   1.888       .  S
O2010      C2023   1.257       .  A
O2010     Al2020   1.900       .  S
Al2011     O2024   1.930       .  S
Al2011     O2021   1.984       .  S
Al2011     O2016   1.773       .  S
O2012      C2019   1.275       .  A
O2012     Al2020   1.946       .  S
O2013      C2022   1.268       .  A
O2013     Al2020   1.962       .  S
O2014     Al2020   1.894       .  S
O2015      C2022   1.258       .  A
O2016     Al2020   1.781       .  S
O2017      C2018   1.274       .  A
C2022      C2682   1.473       .  S
C2023      O2024   1.266       .  A
O2025      C2040   1.259       .  A
O2025     Al2033   1.890       .  S
C2026      O2036   1.256       .  A
C2026      O2027   1.265       .  A
O2027     Al2029   1.921       .  S
O2028      C2030   1.254       .  A
O2028     Al2029   1.903       .  S
Al2029     O2037   1.851       .  S
Al2029     O2039   1.969       .  S
Al2029     O2038   1.750       .  S
C2030      O2043   1.269       .  A
O2031      C2041   1.267       .  A
O2031     Al2033   1.890       .  S
O2032      C2045   1.257       .  A
O2032     Al2042   1.900       .  S
Al2033     O2046   1.930       .  S
Al2033     O2043   1.984       .  S
Al2033     O2038   1.773       .  S
O2034      C2041   1.275       .  A
O2034     Al2042   1.949       .  S
O2035      C2044   1.269       .  A
O2035     Al2042   1.964       .  S
O2036     Al2042   1.894       .  S
O2037      C2044   1.258       .  A
O2038     Al2042   1.781       .  S
O2039      C2040   1.274       .  A
C2041      C2085   1.470       .  S
C2044      C2440   1.475       .  S
C2045      O2046   1.266       .  A
C2045      C2048   1.460       .  S
O2047      C2062   1.259       .  A
O2047     Al2055   1.890       .  S
C2048      O2058   1.256       .  A
C2048      O2049   1.265       .  A
O2049     Al2051   1.921       .  S
O2050      C2052   1.254       .  A
O2050     Al2051   1.903       .  S
Al2051     O2059   1.851       .  S
Al2051     O2061   1.969       .  S
Al2051     O2060   1.750       .  S
C2052      O2065   1.269       .  A
O2053      C2063   1.267       .  A
O2053     Al2055   1.890       .  S
O2054      C2067   1.257       .  A
O2054     Al2064   1.900       .  S
Al2055     O2068   1.930       .  S
Al2055     O2065   1.984       .  S
Al2055     O2060   1.773       .  S
O2056      C2063   1.275       .  A
O2056     Al2064   1.949       .  S
O2057      C2066   1.269       .  A
O2057     Al2064   1.964       .  S
O2058     Al2064   1.894       .  S
O2059      C2066   1.258       .  A
O2060     Al2064   1.781       .  S
O2061      C2062   1.274       .  A
C2063      C2107   1.470       .  S
C2066      C2462   1.475       .  S
C2067      O2068   1.266       .  A
O2069      C2084   1.259       .  A
O2069     Al2077   1.889       .  S
C2070      O2080   1.256       .  A
C2070      O2071   1.265       .  A
C2070      C2111   1.460       .  S
O2071     Al2073   1.921       .  S
O2072      C2074   1.254       .  A
O2072     Al2073   1.903       .  S
Al2073     O2081   1.850       .  S
Al2073     O2083   1.968       .  S
Al2073     O2082   1.750       .  S
C2074      O2087   1.269       .  A
O2075      C2085   1.267       .  A
O2075     Al2077   1.889       .  S
O2076      C2089   1.257       .  A
O2076     Al2086   1.900       .  S
Al2077     O2090   1.930       .  S
Al2077     O2087   1.984       .  S
Al2077     O2082   1.773       .  S
O2078      C2085   1.275       .  A
O2078     Al2086   1.949       .  S
O2079      C2088   1.269       .  A
O2079     Al2086   1.963       .  S
O2080     Al2086   1.894       .  S
O2081      C2088   1.257       .  A
O2082     Al2086   1.781       .  S
O2083      C2084   1.274       .  A
C2088      C2132   1.474       .  S
C2089      O2090   1.266       .  A
O2091      C2106   1.259       .  A
O2091     Al2099   1.889       .  S
C2092      O2102   1.256       .  A
C2092      O2093   1.265       .  A
O2093     Al2095   1.921       .  S
O2094      C2096   1.254       .  A
O2094     Al2095   1.903       .  S
Al2095     O2103   1.850       .  S
Al2095     O2105   1.968       .  S
Al2095     O2104   1.750       .  S
C2096      O2109   1.269       .  A
O2097      C2107   1.267       .  A
O2097     Al2099   1.889       .  S
O2098      C2111   1.257       .  A
O2098     Al2108   1.900       .  S
Al2099     O2112   1.930       .  S
Al2099     O2109   1.984       .  S
Al2099     O2104   1.773       .  S
O2100      C2107   1.275       .  A
O2100     Al2108   1.949       .  S
O2101      C2110   1.269       .  A
O2101     Al2108   1.963       .  S
O2102     Al2108   1.894       .  S
O2103      C2110   1.257       .  A
O2104     Al2108   1.781       .  S
O2105      C2106   1.274       .  A
C2110      C2154   1.474       .  S
C2111      O2112   1.266       .  A
O2113      C2128   1.247       .  A
O2113     Al2121   1.857       .  S
C2114      O2124   1.264       .  A
C2114      O2115   1.259       .  A
O2115     Al2117   1.899       .  S
O2116      C2118   1.261       .  A
O2116     Al2117   1.915       .  S
Al2117     O2125   1.838       .  S
Al2117     O2127   1.922       .  S
Al2117     O2126   1.766       .  S
C2118      O2131   1.282       .  A
C2118      C2272   1.509       .  S
O2119      C2129   1.270       .  A
O2119     Al2121   1.887       .  S
O2120      C2133   1.260       .  A
O2120     Al2130   1.894       .  S
Al2121     O2134   1.933       .  S
Al2121     O2131   2.031       .  S
Al2121     O2126   1.762       .  S
O2122      C2129   1.275       .  A
O2122     Al2130   1.950       .  S
O2123      C2132   1.274       .  A
O2123     Al2130   1.982       .  S
O2124     Al2130   1.912       .  S
O2125      C2132   1.253       .  A
O2126     Al2130   1.770       .  S
O2127      C2128   1.264       .  A
C2128      C2260   1.418       .  S
C2129      C2173   1.470   1_655  S
C2133      O2134   1.265       .  A
C2133      C2136   1.446       .  S
O2135      C2150   1.247       .  A
O2135     Al2143   1.857       .  S
C2136      O2146   1.264       .  A
C2136      O2137   1.259       .  A
O2137     Al2139   1.899       .  S
O2138      C2140   1.261       .  A
O2138     Al2139   1.915       .  S
Al2139     O2147   1.838       .  S
Al2139     O2149   1.922       .  S
Al2139     O2148   1.766       .  S
C2140      O2153   1.282       .  A
C2140      C2250   1.509       .  S
O2141      C2151   1.270       .  A
O2141     Al2143   1.887       .  S
O2142      C2155   1.260       .  A
O2142     Al2152   1.894       .  S
Al2143     O2156   1.933       .  S
Al2143     O2153   2.031       .  S
Al2143     O2148   1.762       .  S
O2144      C2151   1.275       .  A
O2144     Al2152   1.950       .  S
O2145      C2154   1.274       .  A
O2145     Al2152   1.982       .  S
O2146     Al2152   1.912       .  S
O2147      C2154   1.253       .  A
O2148     Al2152   1.770       .  S
O2149      C2150   1.264       .  A
C2150      C2282   1.418       .  S
C2151      C2195   1.470   1_655  S
C2155      O2156   1.265       .  A
O2157      C2172   1.247       .  A
O2157     Al2165   1.857       .  S
C2158      O2168   1.264       .  A
C2158      O2159   1.259       .  A
C2158      C2199   1.446       .  S
O2159     Al2161   1.899       .  S
O2160      C2162   1.261       .  A
O2160     Al2161   1.915       .  S
Al2161     O2169   1.837       .  S
Al2161     O2171   1.921       .  S
Al2161     O2170   1.766       .  S
C2162      O2175   1.283       .  A
C2162      C2316   1.509       .  S
O2163      C2173   1.270       .  A
O2163     Al2165   1.886       .  S
O2164      C2177   1.259       .  A
O2164     Al2174   1.893       .  S
Al2165     O2178   1.934       .  S
Al2165     O2175   2.031       .  S
Al2165     O2170   1.762       .  S
O2166      C2173   1.275       .  A
O2166     Al2174   1.951       .  S
O2167      C2176   1.275       .  A
O2167     Al2174   1.984       .  S
O2168     Al2174   1.912       .  S
O2169      C2176   1.253       .  A
O2170     Al2174   1.770       .  S
O2171      C2172   1.264       .  A
C2172      C2304   1.417       .  S
C2177      O2178   1.265       .  A
O2179      C2194   1.247       .  A
O2179     Al2187   1.857       .  S
C2180      O2190   1.264       .  A
C2180      O2181   1.259       .  A
O2181     Al2183   1.899       .  S
O2182      C2184   1.261       .  A
O2182     Al2183   1.915       .  S
Al2183     O2191   1.837       .  S
Al2183     O2193   1.921       .  S
Al2183     O2192   1.766       .  S
C2184      O2197   1.283       .  A
C2184      C2294   1.509       .  S
O2185      C2195   1.270       .  A
O2185     Al2187   1.886       .  S
O2186      C2199   1.259       .  A
O2186     Al2196   1.893       .  S
Al2187     O2200   1.934       .  S
Al2187     O2197   2.031       .  S
Al2187     O2192   1.762       .  S
O2188      C2195   1.275       .  A
O2188     Al2196   1.951       .  S
O2189      C2198   1.275       .  A
O2189     Al2196   1.984       .  S
O2190     Al2196   1.912       .  S
O2191      C2198   1.253       .  A
O2192     Al2196   1.770       .  S
O2193      C2194   1.264       .  A
C2194      C2326   1.417       .  S
C2199      O2200   1.265       .  A
O2201      C2216   1.247       .  A
O2201     Al2209   1.857       .  S
C2202      O2212   1.264       .  A
C2202      O2203   1.259       .  A
C2202      C2243   1.446       .  S
O2203     Al2205   1.899       .  S
O2204      C2206   1.260       .  A
O2204     Al2205   1.914       .  S
Al2205     O2213   1.836       .  S
Al2205     O2215   1.922       .  S
Al2205     O2214   1.766       .  S
C2206      O2219   1.282       .  A
C2206      C2338   1.509   1_655  S
O2207      C2217   1.270       .  A
O2207     Al2209   1.885       .  S
O2208      C2221   1.259       .  A
O2208     Al2218   1.894       .  S
Al2209     O2222   1.933       .  S
Al2209     O2219   2.031       .  S
Al2209     O2214   1.762       .  S
O2210      C2217   1.275       .  A
O2210     Al2218   1.951       .  S
O2211      C2220   1.275       .  A
O2211     Al2218   1.983       .  S
O2212     Al2218   1.911       .  S
O2213      C2220   1.253       .  A
O2214     Al2218   1.770       .  S
O2215      C2216   1.264       .  A
C2216      C2370   1.418   1_655  S
C2217      C2261   1.470       .  S
C2220      C3100   1.474       .  S
C2221      O2222   1.265       .  A
C2221      C2224   1.446       .  S
C2224      O2234   1.264       .  A
C2224      O2225   1.259       .  A
O2225     Al2227   1.899       .  S
O2226      C2228   1.260       .  A
O2226     Al2227   1.914       .  S
Al2227     O2235   1.836       .  S
Al2227     O2237   1.922       .  S
Al2227     O2236   1.766       .  S
C2228      O2241   1.282       .  A
C2228      C2360   1.509   1_655  S
O2229      C2239   1.270       .  A
O2229     Al2231   1.885       .  S
O2230      C2243   1.259       .  A
Al2231     O2241   2.031       .  S
Al2231     O2236   1.762       .  S
O2232      C2239   1.275       .  A
O2232     Al2240   1.951       .  S
O2233      C2242   1.275       .  A
O2233     Al2240   1.983       .  S
O2234     Al2240   1.911       .  S
O2235      C2242   1.253       .  A
O2236     Al2240   1.770       .  S
O2237      C2238   1.264       .  A
C2239      C2283   1.470       .  S
C2242      C3122   1.474       .  S
C2243      O2244   1.265       .  A
O2245      C2260   1.247       .  A
O2245     Al2253   1.858       .  S
C2246      O2256   1.264       .  A
C2246      O2247   1.259       .  A
C2246      C2287   1.446       .  S
O2247     Al2249   1.899       .  S
O2248      C2250   1.260       .  A
O2248     Al2249   1.914       .  S
Al2249     O2257   1.836       .  S
Al2249     O2259   1.922       .  S
Al2249     O2258   1.765       .  S
C2250      O2263   1.282       .  A
O2251      C2261   1.270       .  A
O2251     Al2253   1.886       .  S
O2252      C2265   1.260       .  A
O2252     Al2262   1.894       .  S
Al2253     O2266   1.933       .  S
Al2253     O2263   2.031       .  S
Al2253     O2258   1.762       .  S
O2254      C2261   1.275       .  A
O2254     Al2262   1.950       .  S
O2255      C2264   1.274       .  A
O2255     Al2262   1.982       .  S
O2256     Al2262   1.911       .  S
O2257      C2264   1.253       .  A
O2258     Al2262   1.770       .  S
O2259      C2260   1.264       .  A
C2265      O2266   1.265       .  A
C2265      C2268   1.446       .  S
O2267      C2282   1.247       .  A
O2267     Al2275   1.858       .  S
C2268      O2278   1.264       .  A
C2268      O2269   1.259       .  A
O2269     Al2271   1.899       .  S
O2270      C2272   1.260       .  A
O2270     Al2271   1.914       .  S
O2273      C2283   1.270       .  A
O2273     Al2275   1.886       .  S
O2274      C2287   1.260       .  A
O2274     Al2284   1.894       .  S
Al2275     O2288   1.933       .  S
Al2275     O2285   2.031       .  S
Al2275     O2280   1.762       .  S
O2276      C2283   1.275       .  A
O2276     Al2284   1.950       .  S
O2277      C2286   1.274       .  A
O2277     Al2284   1.982       .  S
O2279      C2286   1.253       .  A
O2280     Al2284   1.770       .  S
O2281      C2282   1.264       .  A
C2287      O2288   1.265       .  A
O2289      C2304   1.247       .  A
O2289     Al2297   1.858       .  S
C2290      O2300   1.264       .  A
C2290      O2291   1.258       .  A
C2290      C2331   1.446       .  S
O2291     Al2293   1.898       .  S
O2292      C2294   1.260       .  A
O2292     Al2293   1.914       .  S
O2295      C2305   1.270       .  A
O2295     Al2297   1.887       .  S
O2296      C2309   1.260       .  A
O2296     Al2306   1.893       .  S
Al2297     O2310   1.934       .  S
Al2297     O2307   2.032       .  S
Al2297     O2302   1.762       .  S
O2298      C2305   1.275       .  A
O2298     Al2306   1.950       .  S
O2299      C2308   1.275       .  A
O2299     Al2306   1.983       .  S
O2301      C2308   1.253       .  A
O2302     Al2306   1.770       .  S
O2303      C2304   1.264       .  A
C2305      C2349   1.471       .  S
C2309      O2310   1.265       .  A
C2309      C2312   1.446       .  S
O2311      C2326   1.247       .  A
O2311     Al2319   1.858       .  S
C2312      O2322   1.264       .  A
C2312      O2313   1.258       .  A
O2313     Al2315   1.898       .  S
O2314      C2316   1.260       .  A
O2314     Al2315   1.914       .  S
Al2315     O2323   1.836       .  S
Al2315     O2325   1.921       .  S
Al2315     O2324   1.766       .  S
C2316      O2329   1.283       .  A
O2317      C2327   1.270       .  A
O2317     Al2319   1.887       .  S
O2318      C2331   1.260       .  A
O2318     Al2328   1.893       .  S
Al2319     O2332   1.934       .  S
Al2319     O2329   2.032       .  S
Al2319     O2324   1.762       .  S
O2320      C2327   1.275       .  A
O2320     Al2328   1.950       .  S
O2321      C2330   1.275       .  A
O2321     Al2328   1.983       .  S
O2322     Al2328   1.912       .  S
O2323      C2330   1.253       .  A
O2324     Al2328   1.770       .  S
O2325      C2326   1.264       .  A
C2327      C2371   1.471       .  S
C2331      O2332   1.265       .  A
C2334      O2344   1.264       .  A
C2334      O2335   1.259       .  A
C2334      C2375   1.446       .  S
O2335     Al2337   1.899       .  S
O2336      C2338   1.261       .  A
O2336     Al2337   1.915       .  S
Al2337     O2345   1.838       .  S
Al2337     O2347   1.921       .  S
Al2337     O2346   1.766       .  S
C2338      O2351   1.282       .  A
O2339      C2349   1.270       .  A
O2339     Al2341   1.887       .  S
O2340      C2353   1.259       .  A
Al2341     O2351   2.030       .  S
Al2341     O2346   1.762       .  S
O2342      C2349   1.275       .  A
O2342     Al2350   1.950       .  S
O2343      C2352   1.275       .  A
O2343     Al2350   1.983       .  S
O2344     Al2350   1.912       .  S
O2345      C2352   1.253       .  A
O2346     Al2350   1.770       .  S
O2347      C2348   1.264       .  A
C2352      C3012   1.475       .  S
C2353      O2354   1.265       .  A
C2353      C2356   1.446       .  S
O2355      C2370   1.247       .  A
O2355     Al2363   1.857       .  S
C2356      O2366   1.264       .  A
C2356      O2357   1.259       .  A
O2357     Al2359   1.899       .  S
O2358      C2360   1.261       .  A
O2358     Al2359   1.915       .  S
Al2359     O2367   1.838       .  S
Al2359     O2369   1.921       .  S
Al2359     O2368   1.766       .  S
C2360      O2373   1.282       .  A
O2361      C2371   1.270       .  A
O2361     Al2363   1.887       .  S
O2362      C2375   1.259       .  A
O2362     Al2372   1.893       .  S
Al2363     O2376   1.933       .  S
Al2363     O2373   2.030       .  S
Al2363     O2368   1.762       .  S
O2364      C2371   1.275       .  A
O2364     Al2372   1.951       .  S
O2365      C2374   1.275       .  A
O2365     Al2372   1.983       .  S
O2366     Al2372   1.912       .  S
O2367      C2374   1.253       .  A
O2368     Al2372   1.770       .  S
O2369      C2370   1.264       .  A
C2374      C3034   1.475       .  S
C2375      O2376   1.265       .  A
O2377      C2392   1.247       .  A
O2377     Al2385   1.857       .  S
C2378      O2388   1.264       .  A
C2378      O2379   1.259       .  A
O2379     Al2381   1.899       .  S
O2380      C2382   1.261       .  A
O2380     Al2381   1.915       .  S
Al2381     O2389   1.837       .  S
Al2381     O2391   1.921       .  S
Al2381     O2390   1.766       .  S
C2382      O2395   1.283       .  A
C2382      C2624   1.509       .  S
O2383      C2393   1.270       .  A
O2383     Al2385   1.887       .  S
O2384      C2397   1.259       .  A
O2384     Al2394   1.893       .  S
Al2385     O2398   1.934       .  S
Al2385     O2395   2.031       .  S
Al2385     O2390   1.762       .  S
O2386      C2393   1.275       .  A
O2386     Al2394   1.952       .  S
O2387      C2396   1.275       .  A
O2387     Al2394   1.984       .  S
O2388     Al2394   1.912       .  S
O2389      C2396   1.253       .  A
O2390     Al2394   1.770       .  S
O2391      C2392   1.264       .  A
C2392      C2612   1.418       .  S
C2393      C2437   1.471   1_545  S
C2396      C2924   1.475       .  S
C2397      O2398   1.265       .  A
C2397      C2400   1.446       .  S
O2399      C2414   1.247       .  A
O2399     Al2407   1.857       .  S
C2400      O2410   1.264       .  A
C2400      O2401   1.259       .  A
O2401     Al2403   1.899       .  S
O2402      C2404   1.261       .  A
O2402     Al2403   1.915       .  S
Al2403     O2411   1.837       .  S
Al2403     O2413   1.921       .  S
Al2403     O2412   1.766       .  S
C2404      O2417   1.283       .  A
C2404      C2602   1.509       .  S
O2405      C2415   1.270       .  A
O2405     Al2407   1.887       .  S
O2406      C2419   1.259       .  A
O2406     Al2416   1.893       .  S
Al2407     O2420   1.934       .  S
Al2407     O2417   2.031       .  S
Al2407     O2412   1.762       .  S
O2408      C2415   1.275       .  A
O2408     Al2416   1.952       .  S
O2409      C2418   1.275       .  A
O2409     Al2416   1.984       .  S
O2410     Al2416   1.912       .  S
O2411      C2418   1.253       .  A
O2412     Al2416   1.770       .  S
O2413      C2414   1.264       .  A
C2414      C2634   1.418       .  S
C2415      C2459   1.471   1_545  S
C2418      C2946   1.475       .  S
C2419      O2420   1.265       .  A
O2421      C2436   1.247       .  A
O2421     Al2429   1.857       .  S
C2422      O2432   1.264       .  A
C2422      O2423   1.259       .  A
C2422      C2463   1.446       .  S
O2423     Al2425   1.899       .  S
O2424      C2426   1.261       .  A
O2424     Al2425   1.915       .  S
Al2425     O2433   1.838       .  S
Al2425     O2435   1.921       .  S
Al2425     O2434   1.766       .  S
C2426      O2439   1.283       .  A
C2426      C2492   1.509       .  S
O2427      C2437   1.270       .  A
O2427     Al2429   1.887       .  S
O2428      C2441   1.259       .  A
O2428     Al2438   1.893       .  S
Al2429     O2442   1.934       .  S
Al2429     O2439   2.031       .  S
Al2429     O2434   1.762       .  S
O2430      C2437   1.275       .  A
O2430     Al2438   1.951       .  S
O2431      C2440   1.275       .  A
O2431     Al2438   1.983       .  S
O2432     Al2438   1.912       .  S
O2433      C2440   1.253       .  A
O2434     Al2438   1.770       .  S
O2435      C2436   1.264       .  A
C2436      C2480   1.418       .  S
C2441      O2442   1.265       .  A
O2443      C2458   1.247       .  A
O2443     Al2451   1.857       .  S
C2444      O2454   1.264       .  A
C2444      O2445   1.259       .  A
O2445     Al2447   1.899       .  S
O2446      C2448   1.261       .  A
O2446     Al2447   1.915       .  S
Al2447     O2455   1.838       .  S
Al2447     O2457   1.921       .  S
Al2447     O2456   1.766       .  S
C2448      O2461   1.283       .  A
C2448      C2470   1.509       .  S
O2449      C2459   1.270       .  A
O2449     Al2451   1.887       .  S
O2450      C2463   1.259       .  A
O2450     Al2460   1.893       .  S
Al2451     O2464   1.934       .  S
Al2451     O2461   2.031       .  S
Al2451     O2456   1.762       .  S
O2452      C2459   1.275       .  A
O2452     Al2460   1.951       .  S
O2453      C2462   1.275       .  A
O2453     Al2460   1.983       .  S
O2454     Al2460   1.912       .  S
O2455      C2462   1.253       .  A
O2456     Al2460   1.770       .  S
O2457      C2458   1.264       .  A
C2458      C2502   1.418       .  S
C2463      O2464   1.265       .  A
O2465      C2480   1.247       .  A
O2465     Al2473   1.858       .  S
C2466      O2476   1.264       .  A
C2466      O2467   1.259       .  A
C2466      C2507   1.446       .  S
O2467     Al2469   1.899       .  S
O2468      C2470   1.261       .  A
O2468     Al2469   1.915       .  S
O2471      C2481   1.270       .  A
O2471     Al2473   1.886       .  S
O2472      C2485   1.260       .  A
O2472     Al2482   1.894       .  S
Al2473     O2486   1.934       .  S
Al2473     O2483   2.032       .  S
Al2473     O2478   1.762       .  S
O2474      C2481   1.275       .  A
O2474     Al2482   1.951       .  S
O2475      C2484   1.275       .  A
O2475     Al2482   1.983       .  S
O2477      C2484   1.253       .  A
O2478     Al2482   1.770       .  S
O2479      C2480   1.264       .  A
C2481      C2525   1.471       .  S
C2485      O2486   1.265       .  A
C2485      C2488   1.446       .  S
O2487      C2502   1.247       .  A
O2487     Al2495   1.858       .  S
C2488      O2498   1.264       .  A
C2488      O2489   1.259       .  A
O2489     Al2491   1.899       .  S
O2490      C2492   1.261       .  A
O2490     Al2491   1.915       .  S
Al2491     O2499   1.836       .  S
Al2491     O2501   1.921       .  S
Al2491     O2500   1.766       .  S
C2492      O2505   1.283       .  A
O2493      C2503   1.270       .  A
O2493     Al2495   1.886       .  S
O2494      C2507   1.260       .  A
O2494     Al2504   1.894       .  S
Al2495     O2508   1.934       .  S
Al2495     O2505   2.032       .  S
Al2495     O2500   1.762       .  S
O2496      C2503   1.275       .  A
O2496     Al2504   1.951       .  S
O2497      C2506   1.275       .  A
O2497     Al2504   1.983       .  S
O2498     Al2504   1.912       .  S
O2499      C2506   1.253       .  A
O2500     Al2504   1.770       .  S
O2501      C2502   1.264       .  A
C2503      C2547   1.471       .  S
C2507      O2508   1.265       .  A
C2510      O2520   1.264       .  A
C2510      O2511   1.259       .  A
C2510      C2551   1.446       .  S
O2511     Al2513   1.899       .  S
O2512      C2514   1.261       .  A
O2512     Al2513   1.915       .  S
Al2513     O2521   1.837       .  S
Al2513     O2523   1.922       .  S
Al2513     O2522   1.766       .  S
C2514      O2527   1.282       .  A
C2514      C2558   1.509   1_565  S
O2515      C2525   1.270       .  A
O2515     Al2517   1.886       .  S
O2516      C2529   1.260       .  A
Al2517     O2527   2.031       .  S
Al2517     O2522   1.762       .  S
O2518      C2525   1.275       .  A
O2518     Al2526   1.951       .  S
O2519      C2528   1.275       .  A
O2519     Al2526   1.983       .  S
O2520     Al2526   1.912       .  S
O2521      C2528   1.253       .  A
O2522     Al2526   1.770       .  S
O2523      C2524   1.264       .  A
C2529      O2530   1.265       .  A
C2529      C2532   1.446       .  S
O2531      C2546   1.247       .  A
O2531     Al2539   1.857       .  S
C2532      O2542   1.264       .  A
C2532      O2533   1.259       .  A
O2533     Al2535   1.899       .  S
O2534      C2536   1.261       .  A
O2534     Al2535   1.915       .  S
Al2535     O2543   1.837       .  S
Al2535     O2545   1.922       .  S
Al2535     O2544   1.766       .  S
C2536      O2549   1.282       .  A
C2536      C2580   1.509   1_565  S
O2537      C2547   1.270       .  A
O2537     Al2539   1.886       .  S
O2538      C2551   1.260       .  A
O2538     Al2548   1.894       .  S
Al2539     O2552   1.933       .  S
Al2539     O2549   2.031       .  S
Al2539     O2544   1.762       .  S
O2540      C2547   1.275       .  A
O2540     Al2548   1.951       .  S
O2541      C2550   1.275       .  A
O2541     Al2548   1.983       .  S
O2542     Al2548   1.912       .  S
O2543      C2550   1.253       .  A
O2544     Al2548   1.770       .  S
O2545      C2546   1.264       .  A
C2546      C2568   1.418   1_565  S
C2551      O2552   1.265       .  A
O2553      C2568   1.247       .  A
O2553     Al2561   1.858       .  S
C2554      O2564   1.264       .  A
C2554      O2555   1.259       .  A
C2554      C2595   1.446       .  S
O2555     Al2557   1.899       .  S
O2556      C2558   1.260       .  A
O2556     Al2557   1.914       .  S
Al2557     O2565   1.837       .  S
Al2557     O2567   1.921       .  S
Al2557     O2566   1.766       .  S
C2558      O2571   1.282       .  A
O2559      C2569   1.270       .  A
O2559     Al2561   1.887       .  S
O2560      C2573   1.259       .  A
O2560     Al2570   1.894       .  S
Al2561     O2574   1.934       .  S
Al2561     O2571   2.031       .  S
Al2561     O2566   1.762       .  S
O2562      C2569   1.275       .  A
O2562     Al2570   1.950       .  S
O2563      C2572   1.274       .  A
O2563     Al2570   1.982       .  S
O2564     Al2570   1.912       .  S
O2565      C2572   1.253       .  A
O2566     Al2570   1.770       .  S
O2567      C2568   1.264       .  A
C2569      C2613   1.470       .  S
C2573      O2574   1.265       .  A
C2573      C2576   1.446       .  S
C2576      O2586   1.264       .  A
C2576      O2577   1.259       .  A
O2577     Al2579   1.899       .  S
O2578      C2580   1.260       .  A
O2578     Al2579   1.914       .  S
Al2579     O2587   1.837       .  S
Al2579     O2589   1.921       .  S
Al2579     O2588   1.766       .  S
C2580      O2593   1.282       .  A
O2581      C2591   1.270       .  A
O2581     Al2583   1.887       .  S
O2582      C2595   1.259       .  A
Al2583     O2593   2.031       .  S
Al2583     O2588   1.762       .  S
O2584      C2591   1.275       .  A
O2584     Al2592   1.950       .  S
O2585      C2594   1.274       .  A
O2585     Al2592   1.982       .  S
O2586     Al2592   1.912       .  S
O2587      C2594   1.253       .  A
O2588     Al2592   1.770       .  S
O2589      C2590   1.264       .  A
C2591      C2635   1.470       .  S
C2595      O2596   1.265       .  A
O2597      C2612   1.247       .  A
O2597     Al2605   1.858       .  S
C2598      O2608   1.264       .  A
C2598      O2599   1.259       .  A
C2598      C2639   1.446       .  S
O2599     Al2601   1.899       .  S
O2600      C2602   1.261       .  A
O2600     Al2601   1.915       .  S
Al2601     O2609   1.836       .  S
Al2601     O2611   1.921       .  S
Al2601     O2610   1.766       .  S
C2602      O2615   1.283       .  A
O2603      C2613   1.270       .  A
O2603     Al2605   1.886       .  S
O2604      C2617   1.259       .  A
O2604     Al2614   1.893       .  S
Al2605     O2618   1.934       .  S
Al2605     O2615   2.031       .  S
Al2605     O2610   1.762       .  S
O2606      C2613   1.275       .  A
O2606     Al2614   1.951       .  S
O2607      C2616   1.275       .  A
O2607     Al2614   1.983       .  S
O2608     Al2614   1.912       .  S
O2609      C2616   1.253       .  A
O2610     Al2614   1.770       .  S
O2611      C2612   1.264       .  A
C2616      C3144   1.474       .  S
C2617      O2618   1.265       .  A
C2617      C2620   1.446       .  S
O2619      C2634   1.247       .  A
O2619     Al2627   1.858       .  S
C2620      O2630   1.264       .  A
C2620      O2621   1.259       .  A
O2621     Al2623   1.899       .  S
O2622      C2624   1.261       .  A
O2622     Al2623   1.915       .  S
O2625      C2635   1.270       .  A
O2625     Al2627   1.886       .  S
O2626      C2639   1.259       .  A
O2626     Al2636   1.894       .  S
Al2627     O2640   1.934       .  S
Al2627     O2637   2.031       .  S
Al2627     O2632   1.762       .  S
O2628      C2635   1.275       .  A
O2628     Al2636   1.951       .  S
O2629      C2638   1.275       .  A
O2629     Al2636   1.984       .  S
O2631      C2638   1.253       .  A
O2632     Al2636   1.770       .  S
O2633      C2634   1.264       .  A
C2638      C3166   1.474       .  S
C2639      O2640   1.265       .  A
C2642      O2652   1.264       .  A
C2642      O2643   1.259       .  A
C2642      C2683   1.446       .  S
O2643     Al2645   1.899       .  S
O2644      C2646   1.261       .  A
O2644     Al2645   1.914       .  S
Al2645     O2653   1.836       .  S
Al2645     O2655   1.921       .  S
Al2645     O2654   1.766       .  S
C2646      O2659   1.283       .  A
C2646      C2734   1.509       .  S
O2647      C2657   1.270       .  A
O2647     Al2649   1.887       .  S
O2648      C2661   1.260       .  A
Al2649     O2659   2.031       .  S
Al2649     O2654   1.762       .  S
O2650      C2657   1.275       .  A
O2650     Al2658   1.950       .  S
O2651      C2660   1.274       .  A
O2651     Al2658   1.982       .  S
O2652     Al2658   1.912       .  S
O2653      C2660   1.253       .  A
O2654     Al2658   1.770       .  S
O2655      C2656   1.264       .  A
C2657      C2701   1.470       .  S
C2661      O2662   1.265       .  A
C2661      C2664   1.446       .  S
O2663      C2678   1.247       .  A
O2663     Al2671   1.857       .  S
C2664      O2674   1.264       .  A
C2664      O2665   1.259       .  A
O2665     Al2667   1.899       .  S
O2666      C2668   1.261       .  A
O2666     Al2667   1.914       .  S
Al2667     O2675   1.836       .  S
Al2667     O2677   1.921       .  S
Al2667     O2676   1.766       .  S
C2668      O2681   1.283       .  A
C2668      C2756   1.509       .  S
O2669      C2679   1.270       .  A
O2669     Al2671   1.887       .  S
O2670      C2683   1.260       .  A
O2670     Al2680   1.894       .  S
Al2671     O2684   1.933       .  S
Al2671     O2681   2.031       .  S
Al2671     O2676   1.762       .  S
O2672      C2679   1.275       .  A
O2672     Al2680   1.950       .  S
O2673      C2682   1.274       .  A
O2673     Al2680   1.982       .  S
O2674     Al2680   1.912       .  S
O2675      C2682   1.253       .  A
O2676     Al2680   1.770       .  S
O2677      C2678   1.264       .  A
C2678      C2744   1.418       .  S
C2679      C2723   1.470       .  S
C2683      O2684   1.265       .  A
O2685      C2700   1.247       .  A
O2685     Al2693   1.857       .  S
C2686      O2696   1.264       .  A
C2686      O2687   1.259       .  A
C2686      C2727   1.446       .  S
O2687     Al2689   1.899       .  S
O2688      C2690   1.261       .  A
O2688     Al2689   1.915       .  S
C2690      C2844   1.509       .  S
O2691      C2701   1.270       .  A
O2691     Al2693   1.886       .  S
O2692      C2705   1.260       .  A
O2692     Al2702   1.893       .  S
Al2693     O2706   1.934       .  S
Al2693     O2703   2.031       .  S
Al2693     O2698   1.762       .  S
O2694      C2701   1.275       .  A
O2694     Al2702   1.951       .  S
O2695      C2704   1.275       .  A
O2695     Al2702   1.984       .  S
O2697      C2704   1.253       .  A
O2698     Al2702   1.770       .  S
O2699      C2700   1.264       .  A
C2700      C2832   1.417       .  S
C2704      C3056   1.475       .  S
C2705      O2706   1.265       .  A
C2705      C2708   1.446       .  S
O2707      C2722   1.247       .  A
O2707     Al2715   1.857       .  S
C2708      O2718   1.264       .  A
C2708      O2709   1.259       .  A
O2709     Al2711   1.899       .  S
O2710      C2712   1.261       .  A
O2710     Al2711   1.915       .  S
Al2711     O2719   1.837       .  S
Al2711     O2721   1.921       .  S
Al2711     O2720   1.766       .  S
C2712      O2725   1.283       .  A
C2712      C2822   1.509       .  S
O2713      C2723   1.270       .  A
O2713     Al2715   1.886       .  S
O2714      C2727   1.260       .  A
O2714     Al2724   1.893       .  S
Al2715     O2728   1.934       .  S
Al2715     O2725   2.031       .  S
Al2715     O2720   1.762       .  S
O2716      C2723   1.275       .  A
O2716     Al2724   1.951       .  S
O2717      C2726   1.275       .  A
O2717     Al2724   1.984       .  S
O2718     Al2724   1.912       .  S
O2719      C2726   1.253       .  A
O2720     Al2724   1.770       .  S
O2721      C2722   1.264       .  A
C2722      C2854   1.417       .  S
C2726      C3078   1.475       .  S
C2727      O2728   1.265       .  A
O2729      C2744   1.247       .  A
O2729     Al2737   1.857       .  S
C2730      O2740   1.264       .  A
C2730      O2731   1.259       .  A
C2730      C2771   1.446       .  S
O2731     Al2733   1.899       .  S
O2732      C2734   1.261       .  A
O2732     Al2733   1.914       .  S
Al2733     O2741   1.835       .  S
Al2733     O2743   1.922       .  S
Al2733     O2742   1.766       .  S
C2734      O2747   1.282       .  A
O2735      C2745   1.270       .  A
O2735     Al2737   1.886       .  S
O2736      C2749   1.260       .  A
O2736     Al2746   1.894       .  S
Al2737     O2750   1.933       .  S
Al2737     O2747   2.031       .  S
Al2737     O2742   1.762       .  S
O2738      C2745   1.275       .  A
O2738     Al2746   1.949       .  S
O2739      C2748   1.274       .  A
O2739     Al2746   1.981       .  S
O2740     Al2746   1.911       .  S
O2741      C2748   1.253       .  A
O2742     Al2746   1.770       .  S
O2743      C2744   1.264       .  A
C2745      C2789   1.469       .  S
C2749      O2750   1.265       .  A
C2749      C2752   1.446       .  S
C2752      O2762   1.264       .  A
C2752      O2753   1.259       .  A
O2753     Al2755   1.899       .  S
O2754      C2756   1.261       .  A
O2754     Al2755   1.914       .  S
Al2755     O2763   1.835       .  S
Al2755     O2765   1.922       .  S
Al2755     O2764   1.766       .  S
C2756      O2769   1.283       .  A
O2757      C2767   1.270       .  A
O2757     Al2759   1.886       .  S
O2758      C2771   1.260       .  A
Al2759     O2769   2.031       .  S
Al2759     O2764   1.762       .  S
O2760      C2767   1.275       .  A
O2760     Al2768   1.949       .  S
O2761      C2770   1.274       .  A
O2761     Al2768   1.981       .  S
O2762     Al2768   1.911       .  S
O2763      C2770   1.253       .  A
O2764     Al2768   1.770       .  S
O2765      C2766   1.264       .  A
C2767      C2811   1.469       .  S
C2771      O2772   1.265       .  A
O2773      C2788   1.247       .  A
O2773     Al2781   1.857       .  S
C2774      O2784   1.264       .  A
C2774      O2775   1.259       .  A
C2774      C2815   1.446       .  S
O2775     Al2777   1.899       .  S
O2776      C2778   1.261       .  A
O2776     Al2777   1.915       .  S
Al2777     O2785   1.837       .  S
Al2777     O2787   1.922       .  S
Al2777     O2786   1.766       .  S
C2778      O2791   1.282       .  A
C2778      C2888   1.509       .  S
O2779      C2789   1.270       .  A
O2779     Al2781   1.885       .  S
O2780      C2793   1.259       .  A
O2780     Al2790   1.894       .  S
Al2781     O2794   1.934       .  S
Al2781     O2791   2.030       .  S
Al2781     O2786   1.762       .  S
O2782      C2789   1.275       .  A
O2782     Al2790   1.950       .  S
O2783      C2792   1.274       .  A
O2783     Al2790   1.983       .  S
O2784     Al2790   1.911       .  S
O2785      C2792   1.253       .  A
O2786     Al2790   1.770       .  S
O2787      C2788   1.264       .  A
C2788      C2876   1.418       .  S
C2793      O2794   1.265       .  A
C2793      C2796   1.446       .  S
O2795      C2810   1.247       .  A
O2795     Al2803   1.857       .  S
C2796      O2806   1.264       .  A
C2796      O2797   1.259       .  A
O2797     Al2799   1.899       .  S
O2798      C2800   1.261       .  A
O2798     Al2799   1.915       .  S
C2800      C2866   1.509       .  S
O2801      C2811   1.270       .  A
O2801     Al2803   1.885       .  S
O2802      C2815   1.260       .  A
O2802     Al2812   1.894       .  S
Al2803     O2816   1.934       .  S
Al2803     O2813   2.030       .  S
Al2803     O2808   1.762       .  S
O2804      C2811   1.275       .  A
O2804     Al2812   1.950       .  S
O2805      C2814   1.274       .  A
O2805     Al2812   1.983       .  S
O2807      C2814   1.253       .  A
O2808     Al2812   1.770       .  S
O2809      C2810   1.264       .  A
C2810      C2898   1.418       .  S
C2815      O2816   1.265       .  A
O2817      C2832   1.247       .  A
O2817     Al2825   1.858       .  S
C2818      O2828   1.264       .  A
C2818      O2819   1.259       .  A
C2818      C2859   1.446       .  S
O2819     Al2821   1.898       .  S
O2820      C2822   1.261       .  A
O2820     Al2821   1.914       .  S
Al2821     O2829   1.837       .  S
Al2821     O2831   1.921       .  S
Al2821     O2830   1.766       .  S
C2822      O2835   1.283       .  A
O2823      C2833   1.270       .  A
O2823     Al2825   1.887       .  S
O2824      C2837   1.259       .  A
O2824     Al2834   1.893       .  S
Al2825     O2838   1.934       .  S
Al2825     O2835   2.031       .  S
Al2825     O2830   1.762       .  S
O2826      C2833   1.276       .  A
O2826     Al2834   1.952       .  S
O2827      C2836   1.275       .  A
O2827     Al2834   1.985       .  S
O2828     Al2834   1.912       .  S
O2829      C2836   1.253       .  A
O2830     Al2834   1.770       .  S
O2831      C2832   1.264       .  A
C2833      C2877   1.471       .  S
C2836      C2968   1.475       .  S
C2837      O2838   1.265       .  A
O2839      C2854   1.247       .  A
O2839     Al2847   1.858       .  S
C2840      O2850   1.264       .  A
C2840      O2841   1.259       .  A
O2841     Al2843   1.898       .  S
O2842      C2844   1.261       .  A
O2842     Al2843   1.914       .  S
Al2843     O2851   1.837       .  S
Al2843     O2853   1.921       .  S
Al2843     O2852   1.766       .  S
C2844      O2857   1.283       .  A
O2845      C2855   1.270       .  A
O2845     Al2847   1.887       .  S
O2846      C2859   1.259       .  A
O2846     Al2856   1.893       .  S
Al2847     O2860   1.934       .  S
Al2847     O2857   2.031       .  S
Al2847     O2852   1.762       .  S
O2848      C2855   1.276       .  A
O2848     Al2856   1.952       .  S
O2849      C2858   1.275       .  A
O2849     Al2856   1.985       .  S
O2850     Al2856   1.912       .  S
O2851      C2858   1.253       .  A
O2852     Al2856   1.770       .  S
O2853      C2854   1.264       .  A
C2855      C2899   1.471       .  S
C2858      C2990   1.475       .  S
C2859      O2860   1.265       .  A
O2861      C2876   1.247       .  A
O2861     Al2869   1.858       .  S
C2862      O2872   1.264       .  A
C2862      O2863   1.259       .  A
O2863     Al2865   1.899       .  S
O2864      C2866   1.260       .  A
O2864     Al2865   1.914       .  S
Al2865     O2873   1.837       .  S
Al2865     O2875   1.921       .  S
Al2865     O2874   1.766       .  S
C2866      O2879   1.283       .  A
O2867      C2877   1.270       .  A
O2867     Al2869   1.888       .  S
O2868      C2881   1.260       .  A
O2868     Al2878   1.893       .  S
Al2869     O2882   1.933       .  S
Al2869     O2879   2.031       .  S
Al2869     O2874   1.762       .  S
O2870      C2877   1.275       .  A
O2870     Al2878   1.951       .  S
O2871      C2880   1.275       .  A
O2871     Al2878   1.983       .  S
O2872     Al2878   1.912       .  S
O2873      C2880   1.253       .  A
O2874     Al2878   1.770       .  S
O2875      C2876   1.264       .  A
C2881      O2882   1.265       .  A
C2881      C2884   1.446       .  S
O2883      C2898   1.247       .  A
O2883     Al2891   1.858       .  S
C2884      O2894   1.264       .  A
C2884      O2885   1.259       .  A
O2885     Al2887   1.899       .  S
O2886      C2888   1.260       .  A
O2886     Al2887   1.914       .  S
Al2887     O2895   1.837       .  S
Al2887     O2897   1.921       .  S
Al2887     O2896   1.766       .  S
C2888      O2901   1.283       .  A
O2889      C2899   1.270       .  A
O2889     Al2891   1.888       .  S
O2890      C2903   1.260       .  A
O2890     Al2900   1.893       .  S
Al2891     O2904   1.933       .  S
Al2891     O2901   2.031       .  S
Al2891     O2896   1.762       .  S
O2892      C2899   1.275       .  A
O2892     Al2900   1.951       .  S
O2893      C2902   1.274       .  A
O2893     Al2900   1.983       .  S
O2894     Al2900   1.912       .  S
O2895      C2902   1.253       .  A
O2896     Al2900   1.770       .  S
O2897      C2898   1.264       .  A
C2903      O2904   1.265       .  A
O2905      C2920   1.259       .  A
O2905     Al2913   1.890       .  S
C2906      O2916   1.256       .  A
C2906      O2907   1.265       .  A
C2906      C2947   1.460       .  S
O2907     Al2909   1.921       .  S
O2908      C2910   1.254       .  A
O2908     Al2909   1.903       .  S
Al2909     O2917   1.852       .  S
Al2909     O2919   1.969       .  S
Al2909     O2918   1.750       .  S
C2910      O2923   1.269       .  A
C2910      C3130   1.479       .  S
O2911      C2921   1.267       .  A
O2911     Al2913   1.890       .  S
O2912      C2925   1.257       .  A
O2912     Al2922   1.900       .  S
Al2913     O2926   1.930       .  S
Al2913     O2923   1.984       .  S
Al2913     O2918   1.773       .  S
O2914      C2921   1.275       .  A
O2914     Al2922   1.949       .  S
O2915      C2924   1.269       .  A
O2915     Al2922   1.964       .  S
O2916     Al2922   1.894       .  S
O2917      C2924   1.258       .  A
O2918     Al2922   1.781       .  S
O2919      C2920   1.274       .  A
C2920      C3162   1.461       .  S
C2921      C2965   1.471   1_655  S
C2925      O2926   1.266       .  A
O2927      C2942   1.259       .  A
O2927     Al2935   1.890       .  S
C2928      O2938   1.256       .  A
C2928      O2929   1.265       .  A
O2929     Al2931   1.921       .  S
O2930      C2932   1.254       .  A
O2930     Al2931   1.903       .  S
Al2931     O2939   1.852       .  S
Al2931     O2941   1.969       .  S
Al2931     O2940   1.750       .  S
C2932      O2945   1.269       .  A
C2932      C3152   1.479       .  S
O2933      C2943   1.267       .  A
O2933     Al2935   1.890       .  S
O2934      C2947   1.257       .  A
O2934     Al2944   1.900       .  S
Al2935     O2948   1.930       .  S
Al2935     O2945   1.984       .  S
Al2935     O2940   1.773       .  S
O2936      C2943   1.275       .  A
O2936     Al2944   1.949       .  S
O2937      C2946   1.269       .  A
O2937     Al2944   1.964       .  S
O2938     Al2944   1.894       .  S
O2939      C2946   1.258       .  A
O2940     Al2944   1.781       .  S
O2941      C2942   1.274       .  A
C2942      C3140   1.461       .  S
C2943      C2987   1.471   1_655  S
C2947      O2948   1.266       .  A
O2949      C2964   1.259       .  A
O2949     Al2957   1.890       .  S
C2950      O2960   1.256       .  A
C2950      O2951   1.265       .  A
O2951     Al2953   1.922       .  S
O2952      C2954   1.254       .  A
O2952     Al2953   1.903       .  S
Al2953     O2961   1.852       .  S
Al2953     O2963   1.969       .  S
Al2953     O2962   1.750       .  S
C2954      O2967   1.269       .  A
C2954      C3042   1.479       .  S
O2955      C2965   1.267       .  A
O2955     Al2957   1.890       .  S
O2956      C2969   1.257       .  A
O2956     Al2966   1.900       .  S
Al2957     O2970   1.930       .  S
Al2957     O2967   1.984       .  S
Al2957     O2962   1.773       .  S
O2958      C2965   1.275       .  A
O2958     Al2966   1.948       .  S
O2959      C2968   1.268       .  A
O2959     Al2966   1.963       .  S
O2960     Al2966   1.894       .  S
O2961      C2968   1.258       .  A
O2962     Al2966   1.782       .  S
O2963      C2964   1.274       .  A
C2964      C3074   1.462       .  S
C2969      O2970   1.266       .  A
C2969      C2972   1.460       .  S
O2971      C2986   1.259       .  A
O2971     Al2979   1.890       .  S
C2972      O2982   1.256       .  A
C2972      O2973   1.265       .  A
O2973     Al2975   1.922       .  S
O2974      C2976   1.254       .  A
O2974     Al2975   1.903       .  S
Al2975     O2983   1.852       .  S
Al2975     O2985   1.969       .  S
Al2975     O2984   1.750       .  S
C2976      O2989   1.269       .  A
C2976      C3064   1.479       .  S
O2977      C2987   1.267       .  A
O2977     Al2979   1.890       .  S
O2978      C2991   1.257       .  A
O2978     Al2988   1.900       .  S
Al2979     O2992   1.930       .  S
Al2979     O2989   1.984       .  S
Al2979     O2984   1.773       .  S
O2980      C2987   1.275       .  A
O2980     Al2988   1.948       .  S
O2981      C2990   1.268       .  A
O2981     Al2988   1.963       .  S
O2982     Al2988   1.894       .  S
O2983      C2990   1.258       .  A
O2984     Al2988   1.782       .  S
O2985      C2986   1.274       .  A
C2986      C3052   1.461       .  S
C2991      O2992   1.266       .  A
O2993      C3008   1.259       .  A
O2993     Al3001   1.890       .  S
C2994      O3004   1.256       .  A
C2994      O2995   1.265       .  A
C2994      C3035   1.460       .  S
Al2997     O3005   1.851       .  S
Al2997     O3007   1.969       .  S
Al2997     O3006   1.750       .  S
C2998      O3011   1.269       .  A
O2999      C3009   1.267       .  A
O2999     Al3001   1.890       .  S
O3000      C3013   1.257       .  A
O3000     Al3010   1.900       .  S
Al3001     O3014   1.930       .  S
Al3001     O3011   1.984       .  S
Al3001     O3006   1.773       .  S
O3002      C3009   1.275       .  A
O3002     Al3010   1.949       .  S
O3003      C3012   1.269       .  A
O3003     Al3010   1.964       .  S
O3005      C3012   1.258       .  A
O3006     Al3010   1.781       .  S
O3007      C3008   1.274       .  A
C3008      C3096   1.461   1_455  S
C3009      C3053   1.471       .  S
C3013      O3014   1.266       .  A
C3013      C3016   1.460       .  S
O3015      C3030   1.259       .  A
O3015     Al3023   1.890       .  S
C3016      O3026   1.256       .  A
C3016      O3017   1.265       .  A
O3017     Al3019   1.921       .  S
O3018      C3020   1.254       .  A
O3018     Al3019   1.903       .  S
Al3019     O3027   1.851       .  S
Al3019     O3029   1.969       .  S
Al3019     O3028   1.750       .  S
C3020      O3033   1.269       .  A
C3020      C3086   1.479   1_455  S
O3021      C3031   1.267       .  A
O3021     Al3023   1.890       .  S
O3022      C3035   1.257       .  A
O3022     Al3032   1.900       .  S
Al3023     O3036   1.930       .  S
Al3023     O3033   1.984       .  S
Al3023     O3028   1.773       .  S
O3024      C3031   1.275       .  A
O3024     Al3032   1.949       .  S
O3025      C3034   1.269       .  A
O3025     Al3032   1.964       .  S
O3026     Al3032   1.894       .  S
O3027      C3034   1.258       .  A
O3028     Al3032   1.781       .  S
O3029      C3030   1.274       .  A
C3030      C3118   1.461   1_455  S
C3031      C3075   1.471       .  S
C3035      O3036   1.266       .  A
O3037      C3052   1.259       .  A
O3037     Al3045   1.890       .  S
C3038      O3048   1.256       .  A
C3038      O3039   1.265       .  A
C3038      C3079   1.460       .  S
O3039     Al3041   1.922       .  S
O3040      C3042   1.254       .  A
O3040     Al3041   1.903       .  S
Al3041     O3049   1.851       .  S
Al3041     O3051   1.969       .  S
Al3041     O3050   1.750       .  S
C3042      O3055   1.269       .  A
O3043      C3053   1.267       .  A
O3044      C3057   1.257       .  A
Al3045     O3058   1.930       .  S
O3046      C3053   1.275       .  A
O3046     Al3054   1.949       .  S
O3047      C3056   1.269       .  A
O3047     Al3054   1.964       .  S
O3048     Al3054   1.894       .  S
O3049      C3056   1.258       .  A
O3050     Al3054   1.782       .  S
C3057      O3058   1.266       .  A
C3057      C3060   1.460       .  S
O3059      C3074   1.259       .  A
O3059     Al3067   1.890       .  S
C3060      O3070   1.256       .  A
C3060      O3061   1.265       .  A
O3061     Al3063   1.922       .  S
O3062      C3064   1.254       .  A
O3062     Al3063   1.903       .  S
Al3063     O3071   1.851       .  S
Al3063     O3073   1.969       .  S
Al3063     O3072   1.750       .  S
C3064      O3077   1.269       .  A
O3065      C3075   1.267       .  A
O3065     Al3067   1.890       .  S
O3066      C3079   1.257       .  A
O3066     Al3076   1.900       .  S
Al3067     O3080   1.930       .  S
Al3067     O3077   1.984       .  S
Al3067     O3072   1.773       .  S
O3068      C3075   1.275       .  A
O3068     Al3076   1.949       .  S
O3069      C3078   1.269       .  A
O3069     Al3076   1.964       .  S
O3070     Al3076   1.894       .  S
O3071      C3078   1.258       .  A
O3072     Al3076   1.782       .  S
O3073      C3074   1.274       .  A
C3079      O3080   1.266       .  A
O3081      C3096   1.259       .  A
O3081     Al3089   1.889       .  S
C3082      O3092   1.256       .  A
C3082      O3083   1.265       .  A
C3082      C3123   1.460       .  S
O3083     Al3085   1.921       .  S
O3084      C3086   1.254       .  A
O3084     Al3085   1.903       .  S
Al3085     O3093   1.851       .  S
Al3085     O3095   1.969       .  S
Al3085     O3094   1.750       .  S
C3086      O3099   1.269       .  A
O3087      C3097   1.267       .  A
O3087     Al3089   1.889       .  S
O3088      C3101   1.257       .  A
O3088     Al3098   1.900       .  S
Al3089     O3102   1.929       .  S
Al3089     O3099   1.984       .  S
Al3089     O3094   1.773       .  S
O3090      C3097   1.275       .  A
O3090     Al3098   1.947       .  S
O3091      C3100   1.268       .  A
O3091     Al3098   1.962       .  S
O3092     Al3098   1.894       .  S
O3093      C3100   1.258       .  A
O3094     Al3098   1.781       .  S
O3095      C3096   1.274       .  A
C3097      C3141   1.469       .  S
C3101      O3102   1.266       .  A
C3101      C3104   1.460       .  S
O3103      C3118   1.259       .  A
O3103     Al3111   1.889       .  S
C3104      O3114   1.256       .  A
C3104      O3105   1.265       .  A
Al3107     O3115   1.851       .  S
Al3107     O3117   1.969       .  S
Al3107     O3116   1.750       .  S
C3108      O3121   1.269       .  A
O3109      C3119   1.267       .  A
O3109     Al3111   1.889       .  S
O3110      C3123   1.257       .  A
O3110     Al3120   1.900       .  S
Al3111     O3124   1.929       .  S
Al3111     O3121   1.984       .  S
Al3111     O3116   1.773       .  S
O3112      C3119   1.275       .  A
O3112     Al3120   1.947       .  S
O3113      C3122   1.268       .  A
O3113     Al3120   1.962       .  S
O3115      C3122   1.258       .  A
O3116     Al3120   1.781       .  S
O3117      C3118   1.274       .  A
C3119      C3163   1.469       .  S
C3123      O3124   1.266       .  A
O3125      C3140   1.259       .  A
O3125     Al3133   1.890       .  S
C3126      O3136   1.256       .  A
C3126      O3127   1.265       .  A
C3126      C3167   1.460       .  S
O3127     Al3129   1.921       .  S
O3128      C3130   1.254       .  A
O3128     Al3129   1.903       .  S
Al3129     O3137   1.851       .  S
Al3129     O3139   1.969       .  S
Al3129     O3138   1.750       .  S
C3130      O3143   1.269       .  A
O3131      C3141   1.267       .  A
O3131     Al3133   1.889       .  S
O3132      C3145   1.257       .  A
O3132     Al3142   1.900       .  S
Al3133     O3146   1.930       .  S
Al3133     O3143   1.984       .  S
Al3133     O3138   1.773       .  S
O3134      C3141   1.275       .  A
O3134     Al3142   1.947       .  S
O3135      C3144   1.268       .  A
O3135     Al3142   1.963       .  S
O3136     Al3142   1.894       .  S
O3137      C3144   1.258       .  A
O3138     Al3142   1.781       .  S
O3139      C3140   1.274       .  A
C3145      O3146   1.266       .  A
C3145      C3148   1.460       .  S
O3147      C3162   1.259       .  A
O3147     Al3155   1.890       .  S
C3148      O3158   1.256       .  A
C3148      O3149   1.265       .  A
O3149     Al3151   1.921       .  S
O3150      C3152   1.254       .  A
O3150     Al3151   1.903       .  S
Al3151     O3159   1.851       .  S
Al3151     O3161   1.969       .  S
Al3151     O3160   1.750       .  S
C3152      O3165   1.269       .  A
O3153      C3163   1.267       .  A
O3154      C3167   1.257       .  A
Al3155     O3168   1.930       .  S
O3156      C3163   1.275       .  A
O3156     Al3164   1.947       .  S
O3157      C3166   1.268       .  A
O3157     Al3164   1.963       .  S
O3158     Al3164   1.894       .  S
O3159      C3166   1.258       .  A
O3160     Al3164   1.781       .  S
C3167      O3168   1.266       .  A
