geometry optimzed in LAMMPS
_audit_creation_date              2020-11-30 
_audit_creation_method            'lammps2cif' 
_symmetry_space_group_name_H-M    'P1' 
_symmetry_Int_Tables_number       1 
_symmetry_cell_setting            triclinic 
loop_ 
_symmetry_equiv_pos_as_xyz 
  x,y,z 
_cell_length_a                    24.417872038328056 
_cell_length_b                    24.62845916266139 
_cell_length_c                    49.071866739737416 
_cell_angle_alpha                 89.65591910991557 
_cell_angle_beta                  89.60299752541285 
_cell_angle_gamma                 94.60381718928393 
loop_ 
_atom_site_label 
_atom_site_type_symbol 
_atom_site_fract_x 
_atom_site_fract_y 
_atom_site_fract_z 
_atom_site_charge 
O1          O  0.16045821  0.78943249  0.03411404    -0.81820
O2          O  0.91229302  0.80973552  0.50231587    -0.66510
O3          O  0.04696150  0.78830333  0.03696874    -1.13110
C4          C  0.04538146  0.64978596  0.46903847     1.05070
O5          O  0.89451369  0.72102262  0.51139532    -0.79720
O6          O  0.95866295  0.63185959  0.01240059    -0.67300
Ni7        Ni  0.10723939  0.84240893  0.03581318     1.34870
C8          C  0.99163814  0.63028705  0.03214153     0.83800
O9          O  0.97333377  0.87150757  0.03954897    -0.80260
O10         O  0.06215446  0.90197206  0.03933505    -0.90530
C11         C  0.87852351  0.76779944  0.50588046     0.83370
O12         O  0.10689649  0.84938674  0.49689980    -0.68740
O13         O  0.99598361  0.65955543  0.46336477    -0.88020
C14         C  0.06676735  0.86148095  0.48218873     0.84200
C15         C  0.01181322  0.90975579  0.04280096     1.05770
H16         H  0.01216261  0.75876184  0.47869094     0.37580
O17         O  0.99825225  0.74501963  0.49607750    -1.10680
O18         O  0.01733376  0.67445806  0.03997801    -0.67340
Ni19       Ni  0.05807988  0.72495686  0.51534622     1.26350
O20         O  0.01673710  0.85228935  0.48988498    -0.67560
O21         O  0.07048773  0.66612724  0.49071930    -0.79860
C22         C  0.15775709  0.73915989  0.04047646     0.83590
O23         O  0.11627898  0.70729441  0.03638905    -0.67030
Ni24       Ni  0.94431219  0.68969676  0.48732643     1.27450
Ni25       Ni  0.98251194  0.80566158  0.01844468     1.26060
H26         H  0.03812919  0.77806206  0.05562182     0.38130
O27         O  0.37773256  0.66510563  0.02318033    -0.81820
O28         O  0.62162563  0.68928206  0.50235504    -0.66510
O29         O  0.48182729  0.68565367  0.03661926    -1.13110
C30         C  0.45781032  0.82172724  0.46819770     1.05070
O31         O  0.62321908  0.77906770  0.50935489    -0.79720
O32         O  0.54461613  0.85271024  0.01072465    -0.67300
Ni33       Ni  0.43141084  0.62227927  0.03635862     1.34870
C34         C  0.51100485  0.85156739  0.03057106     0.83800
O35         O  0.56877814  0.61445158  0.03884183    -0.80260
O36         O  0.48384774  0.57552576  0.04838670    -0.90530
C37         C  0.64769799  0.73617826  0.50510924     0.83370
O38         O  0.44057804  0.59986302  0.49993042    -0.68740
O39         O  0.50896168  0.81954903  0.46239479    -0.88020
C40         C  0.48013696  0.60580255  0.48321822     0.84200
C41         C  0.53568830  0.57433875  0.04777682     1.05770
H42         H  0.51304518  0.72248080  0.47935946     0.37580
O43         O  0.52360789  0.73819055  0.49664485    -1.10680
O44         O  0.48666972  0.80616066  0.03887168    -0.67340
Ni45       Ni  0.45812731  0.74631768  0.51504072     1.26350
O46         O  0.52578812  0.63212156  0.48857635    -0.67560
O47         O  0.43491846  0.80021560  0.48974850    -0.79860
C48         C  0.36451756  0.70400566  0.03751798     0.83590
O49         O  0.39276128  0.74888130  0.03550657    -0.67030
Ni50       Ni  0.56712189  0.79953273  0.48571846     1.27450
Ni51       Ni  0.54979491  0.67993667  0.01830258     1.26060
H52         H  0.48854006  0.69711307  0.05517722     0.38130
O53         O  0.18724424  0.85561691  0.32304797    -0.81820
O54         O  0.19327705  0.09766065  0.36346449    -0.66510
O55         O  0.20245879  0.96933128  0.32171696    -1.13110
C56         C  0.33373025  0.93910639  0.39110614     1.05070
O57         O  0.28426183  0.10688813  0.35773518    -0.79720
O58         O  0.36433363  0.03369077  0.35406937    -0.67300
Ni59       Ni  0.14208816  0.91511058  0.31859406     1.34870
C60         C  0.36555212  0.00623944  0.33230471     0.83800
O61         O  0.12775221  0.05210574  0.32252366    -0.80260
O62         O  0.08971109  0.96797734  0.31362980    -0.90530
C63         C  0.23890393  0.12721136  0.36259315     0.83370
O64         O  0.12668563  0.91010670  0.35676947    -0.68740
O65         O  0.32666558  0.98713977  0.39964892    -0.88020
C66         C  0.12332668  0.94684725  0.37460369     0.84200
C67         C  0.08752958  0.01932354  0.31435026     1.05770
H68         H  0.23060017  0.98680210  0.38144758     0.37580
O69         O  0.24738848  0.00353258  0.36530013    -1.10680
O70         O  0.32073664  0.98595082  0.32187386    -0.67340
Ni71       Ni  0.26252306  0.94647732  0.34306553     1.26350
O72         O  0.13930514  0.99675983  0.37012919    -0.67560
O73         O  0.31733321  0.92122060  0.36773954    -0.79860
C74         C  0.23847241  0.85104705  0.32097195     0.83590
O75         O  0.27325119  0.89085618  0.31918434    -0.67030
Ni76       Ni  0.30595525  0.04785618  0.37885707     1.27450
Ni77       Ni  0.19065782  0.03108251  0.34355672     1.26060
H78         H  0.21525453  0.98112976  0.30379765     0.38130
O79         O  0.35907165  0.63258900  0.34312079    -0.81820
O80         O  0.32526129  0.38303129  0.36072873    -0.66510
O81         O  0.32383288  0.52520105  0.32980416    -1.13110
C82         C  0.18044564  0.53242636  0.39696725     1.05070
O83         O  0.23925672  0.38298763  0.34705421    -0.79720
O84         O  0.16096444  0.45686525  0.34371489    -0.67300
Ni85       Ni  0.38786543  0.57313351  0.32488860     1.34870
C86         C  0.16299520  0.50045858  0.32969962     0.83800
O87         O  0.40447867  0.44181087  0.32920522    -0.80260
O88         O  0.42216711  0.51823828  0.30565067    -0.90530
C89         C  0.27828831  0.35744669  0.35647658     0.83370
O90         O  0.41961908  0.55667626  0.35897713    -0.68740
O91         O  0.17523070  0.48021273  0.39599501    -0.88020
C92         C  0.40891508  0.52430792  0.37880797     0.84200
C93         C  0.43842109  0.47542254  0.31605550     1.05770
H94         H  0.28185048  0.47983740  0.38616818     0.37580
O95         O  0.27007887  0.47546938  0.36750823    -1.10680
O96         O  0.20669616  0.53258502  0.32844219    -0.67340
Ni97       Ni  0.26690801  0.54530784  0.35442960     1.26350
O98         O  0.37527886  0.48227509  0.37725130    -0.67560
O99         O  0.21331798  0.56203508  0.38141033    -0.79860
C100        C  0.31122806  0.64773655  0.34091361     0.83590
O101        O  0.26865003  0.61561688  0.34099904    -0.67030
Ni102      Ni  0.20636134  0.43010414  0.37141132     1.27450
Ni103      Ni  0.33269485  0.45560536  0.34641974     1.26060
H104        H  0.30778851  0.51875282  0.31205618     0.38130
O105        O  0.85426168  0.39688570  0.24560851    -0.81820
O106        O  0.83404728  0.63145237  0.26513617    -0.66510
O107        O  0.81946660  0.47808890  0.27787240    -1.13110
C108        C  0.67068539  0.48682300  0.21631867     1.05070
O109        O  0.74851059  0.61665763  0.27948763    -0.79720
O110        O  0.66746838  0.53657732  0.27842575    -0.67300
Ni111      Ni  0.87968666  0.43630059  0.27676415     1.34870
C112        C  0.66611521  0.48769140  0.28670783     0.83800
O113        O  0.90834719  0.56100465  0.28996481    -0.80260
O114        O  0.90520640  0.47785507  0.30712838    -0.90530
C115        C  0.78749695  0.64967401  0.27107772     0.83370
O116        O  0.92598531  0.47954803  0.25182341    -0.68740
O117        O  0.66788546  0.53653344  0.22378748    -0.88020
C118        C  0.91207740  0.51165454  0.23336727     0.84200
C119        C  0.93269058  0.52222638  0.30187782     1.05770
H120        H  0.77964044  0.54662627  0.22984097     0.37580
O121        O  0.76880811  0.53964525  0.24858486    -1.10680
O122        O  0.70344298  0.45642836  0.28005366    -0.67340
Ni123      Ni  0.76193754  0.46443057  0.25201274     1.26350
O124        O  0.87394899  0.54327553  0.23704724    -0.67560
O125        O  0.70564465  0.45543450  0.22539764    -0.79860
C126        C  0.80847812  0.36939887  0.24543271     0.83590
O127        O  0.76479253  0.38876911  0.25365378    -0.67030
Ni128      Ni  0.70768151  0.57875797  0.25184303     1.27450
Ni129      Ni  0.83451998  0.55367692  0.27083976     1.26060
H130        H  0.80330697  0.47407639  0.29587825     0.38130
O131        O  0.70354391  0.14540393  0.26556665    -0.81820
O132        O  0.68572459  0.89121134  0.25318484    -0.66510
O133        O  0.70868243  0.03639836  0.28007948    -1.13110
C134        C  0.84726816  0.04353368  0.20941974     1.05070
O135        O  0.77568285  0.89360520  0.26089118    -0.79720
O136        O  0.86407037  0.96927068  0.25681597    -0.67300
Ni137      Ni  0.65490558  0.08821728  0.28049840     1.34870
C138        C  0.86642391  0.00433422  0.27564424     0.83800
O139        O  0.62218762  0.95120232  0.28773390    -0.80260
O140        O  0.59971560  0.03700821  0.29488318    -0.90530
C141        C  0.73002051  0.86693302  0.25644350     0.83370
O142        O  0.62880879  0.07461829  0.24466628    -0.68740
O143        O  0.83525456  0.99235885  0.20651327    -0.88020
C144        C  0.62355712  0.03300105  0.22948826     0.84200
C145        C  0.58867218  0.98581119  0.29600908     1.05770
H146        H  0.73587528  0.99479427  0.22371480     0.37580
O147        O  0.75051690  0.98674972  0.24134552    -1.10680
O148        O  0.82404720  0.02845225  0.28231984    -0.67340
Ni149      Ni  0.77124860  0.05350494  0.25637811     1.26350
O150        O  0.64196733  0.98742159  0.23585975    -0.67560
O151        O  0.83005880  0.07005629  0.22987117    -0.79860
C152        C  0.75521337  0.15580075  0.26588083     0.83590
O153        O  0.78723659  0.12069738  0.27206126    -0.67030
Ni154      Ni  0.80576596  0.94145851  0.23353897     1.27450
Ni155      Ni  0.68927504  0.96591892  0.26532506     1.26060
H156        H  0.72131545  0.03190391  0.29851223     0.38130
O157        O  0.14521206  0.31080528  0.10059589    -0.81820
O158        O  0.90851950  0.34540525  0.08327116    -0.66510
O159        O  0.03699477  0.30598958  0.11561400    -1.13110
C160        C  0.00705914  0.14389754  0.06148937     1.05070
O161        O  0.87170021  0.26071370  0.08832308    -0.79720
O162        O  0.92210365  0.17484677  0.10398207    -0.67300
Ni163      Ni  0.09756039  0.35645229  0.12095795     1.34870
C164        C  0.95496575  0.17521975  0.12390228     0.83800
O165        O  0.96805435  0.38698311  0.12437949    -0.80260
O166        O  0.05191025  0.40009157  0.14310521    -0.90530
C167        C  0.86818234  0.31189066  0.08801886     0.83370
O168        O  0.08765404  0.40931537  0.09193973    -0.68740
O169        O  0.96368759  0.16411034  0.05321715    -0.88020
C170        C  0.04631469  0.41626470  0.07684482     0.84200
C171        C  0.00115154  0.41028802  0.14156822     1.05770
H172        H  0.99428203  0.27850383  0.05847749     0.37580
O173        O  0.98162584  0.26567265  0.07625252    -1.10680
O174        O  0.00163108  0.20223710  0.12381662    -0.67340
Ni175      Ni  0.04256648  0.24115781  0.09491703     1.26350
O176        O  0.00944564  0.37755147  0.07317022    -0.67560
O177        O  0.04306768  0.17159076  0.07584557    -0.79860
C178        C  0.15020835  0.26035148  0.10673287     0.83590
O179        O  0.10869989  0.22738683  0.11221269    -0.67030
Ni180      Ni  0.92011427  0.21510016  0.07071388     1.27450
Ni181      Ni  0.97396120  0.32781735  0.09937615     1.26060
H182        H  0.02612830  0.29503644  0.13391623     0.38130
O183        O  0.65356930  0.20334455  0.08489768    -0.81820
O184        O  0.39850361  0.16632742  0.10881965    -0.66510
O185        O  0.53994621  0.19801796  0.07639418    -1.13110
C186        C  0.54925469  0.33774206  0.14517580     1.05070
O187        O  0.39082555  0.25573914  0.10329584    -0.79720
O188        O  0.46451262  0.34718426  0.10317254    -0.67300
Ni189      Ni  0.59589250  0.14823371  0.07605212     1.34870
C190        C  0.49976012  0.35338011  0.08411476     0.83800
O191        O  0.45798038  0.10872173  0.07193903    -0.80260
O192        O  0.54539266  0.08735243  0.06699464    -0.90530
C193        C  0.36938543  0.20686865  0.10504943     0.83370
O194        O  0.58958711  0.12908633  0.11366211    -0.68740
O195        O  0.49975477  0.32071884  0.15174147    -0.88020
C196        C  0.54761156  0.11638839  0.12853859     0.84200
C197        C  0.49387799  0.07502592  0.06553546     1.05770
H198        H  0.50500106  0.22163656  0.13435928     0.37580
O199        O  0.49280459  0.23596302  0.11729555    -1.10680
O200        O  0.52206072  0.31193363  0.07495739    -0.67340
Ni201      Ni  0.55620513  0.26125541  0.09880781     1.26350
O202        O  0.49928831  0.12808462  0.12206315    -0.67560
O203        O  0.57325112  0.32043663  0.12399362    -0.79860
C204        C  0.65883577  0.25475688  0.08148271     0.83590
O205        O  0.61882059  0.28280334  0.07887571    -0.67030
Ni206      Ni  0.44458464  0.28744201  0.12767864     1.27450
Ni207      Ni  0.47194078  0.17499132  0.09395631     1.26060
H208        H  0.53289834  0.20920324  0.05792426     0.38130
C209        C  0.30972044  0.20059618  0.10151177    -0.07050
C210        C  0.27696969  0.18802386  0.12457685    -0.18180
C211        C  0.22434203  0.20657707  0.12676781     0.10140
C212        C  0.20422855  0.23815946  0.10537920    -0.06980
C213        C  0.23514576  0.24634770  0.08141261    -0.18210
C214        C  0.28707090  0.22698788  0.07907997     0.10170
S215        S  0.18724734  0.19293457  0.15830760    -0.33180
S216        S  0.32486627  0.24114069  0.04775949    -0.33190
H217        H  0.36109516  0.20003056  0.05123107     0.28180
H218        H  0.16332018  0.24297214  0.15919270     0.28180
H219        H  0.29445427  0.16876203  0.14204826     0.18770
H220        H  0.21897681  0.26845335  0.06449188     0.18780
C221        C  0.81540116  0.33022983  0.09460978    -0.07050
C222        C  0.78639367  0.34797316  0.07225323    -0.18180
C223        C  0.73392552  0.32403572  0.06719657     0.10140
C224        C  0.71145465  0.28362564  0.08546786    -0.06980
C225        C  0.73690990  0.27458027  0.11029979    -0.18210
C226        C  0.78749451  0.30101581  0.11586287     0.10170
S227        S  0.70076681  0.34232142  0.03609252    -0.33180
S228        S  0.82057150  0.28468201  0.14731606    -0.33190
H229        H  0.86737006  0.32103765  0.14327734     0.28180
H230        H  0.67375910  0.29069361  0.03137757     0.28180
H231        H  0.80768391  0.37246802  0.05643020     0.18770
H232        H  0.71732859  0.24683507  0.12534637     0.18780
C233        C  0.55703714  0.08591985  0.15413928    -0.07050
C234        C  0.59758038  0.04831271  0.15383663    -0.18180
C235        C  0.61602427  0.02504750  0.17789587     0.10140
C236        C  0.59487533  0.04074995  0.20325874    -0.06980
C237        C  0.55129401  0.07498542  0.20335459    -0.18210
C238        C  0.53175439  0.09701041  0.17923668     0.10170
S239        S  0.67041073  0.98027690  0.17488966    -0.33180
S240        S  0.47908046  0.14372901  0.18228192    -0.33190
H241        H  0.44299719  0.11364639  0.16474610     0.28180
H242        H  0.64344556  0.93932243  0.19132927     0.28180
H243        H  0.61652354  0.03827850  0.13466564     0.18770
H244        H  0.53411132  0.08702801  0.22261863     0.18780
C245        C  0.93731076  0.14067440  0.14754297    -0.07050
C246        C  0.92166311  0.08567558  0.14263355    -0.18180
C247        C  0.89551561  0.05205764  0.16266337     0.10140
C248        C  0.88213984  0.07427774  0.18833513    -0.06980
C249        C  0.90013750  0.12918585  0.19344571    -0.18210
C250        C  0.92805407  0.16210071  0.17356858     0.10170
S251        S  0.87885710  0.98215246  0.15319418    -0.33180
S252        S  0.94653215  0.23228697  0.18173604    -0.33190
H253        H  0.00136418  0.23043845  0.17311856     0.28180
H254        H  0.90827761  0.96169034  0.17504573     0.28180
H255        H  0.92905285  0.06891915  0.12266930     0.18770
H256        H  0.89153946  0.14729235  0.21292542     0.18780
C257        C  0.63304466  0.46227825  0.19568706    -0.07050
C258        C  0.65689894  0.44735414  0.17121484    -0.18180
C259        C  0.63085442  0.40794961  0.15436467     0.10140
C260        C  0.57911659  0.38122188  0.16206988    -0.06980
C261        C  0.55385576  0.39905435  0.18598250    -0.18210
C262        C  0.57984924  0.43950901  0.20256160     0.10170
S263        S  0.66859604  0.39215746  0.12437543    -0.33180
S264        S  0.54415968  0.45817078  0.23290360    -0.33190
H265        H  0.56862053  0.51162409  0.23426299     0.28180
H266        H  0.67403856  0.33970770  0.13477671     0.28180
H267        H  0.69815029  0.46406966  0.16603847     0.18770
H268        H  0.51366715  0.38109798  0.19208667     0.18780
C269        C  0.93847179  0.50635615  0.20647391    -0.07050
C270        C  0.90423276  0.49133952  0.18456108    -0.18180
C271        C  0.92365062  0.46302520  0.16210862     0.10140
C272        C  0.97937177  0.44941771  0.16153067    -0.06980
C273        C  0.01467949  0.47057766  0.18216241    -0.18210
C274        C  0.99496479  0.49878534  0.20437661     0.10170
S275        S  0.87541348  0.44362262  0.13534515    -0.33180
S276        S  0.04326835  0.52115136  0.23045154    -0.33190
H277        H  0.01142870  0.56098971  0.24142698     0.28180
H278        H  0.82730746  0.45701516  0.14881331     0.28180
H279        H  0.86092899  0.49755686  0.18621235     0.18770
H280        H  0.05773422  0.46290159  0.18185346     0.18780
C281        C  0.77301948  0.70576685  0.26590016    -0.07050
C282        C  0.73102880  0.72486777  0.28235933    -0.18180
C283        C  0.71078839  0.77545156  0.27778869     0.10140
C284        C  0.73243229  0.80800040  0.25610251    -0.06980
C285        C  0.77249760  0.78812515  0.23884766    -0.18210
C286        C  0.79252900  0.73725435  0.24328526     0.10170
S287        S  0.65967380  0.79722942  0.30116608    -0.33180
S288        S  0.84187871  0.71484146  0.21924445    -0.33190
H289        H  0.81518394  0.66238902  0.21646667     0.28180
H290        H  0.68279243  0.85102927  0.30385387     0.28180
H291        H  0.71435845  0.70050053  0.29940196     0.18770
H292        H  0.79008352  0.81368057  0.22241628     0.18780
C293        C  0.80787532  0.31264523  0.23939224    -0.07050
C294        C  0.84494186  0.28394628  0.25425879    -0.18180
C295        C  0.82941561  0.23168495  0.26326434     0.10140
C296        C  0.77772581  0.20753444  0.25528633    -0.06980
C297        C  0.74637641  0.23303697  0.23581758    -0.18210
C298        C  0.76121932  0.28588462  0.22770033     0.10170
S299        S  0.87359979  0.20211111  0.28764020    -0.33180
S300        S  0.71669112  0.31912736  0.20484397    -0.33190
H301        H  0.75606866  0.36143469  0.19715907     0.28180
H302        H  0.83092690  0.18767223  0.30638454     0.28180
H303        H  0.88171126  0.30494809  0.26267123     0.18770
H304        H  0.70869174  0.21288245  0.22796316     0.18780
C305        C  0.61583064  0.46984004  0.30359315    -0.07050
C306        C  0.59392651  0.51191236  0.31805819    -0.18180
C307        C  0.53745642  0.51474467  0.32107328     0.10140
C308        C  0.49971615  0.46974562  0.31428632    -0.06980
C309        C  0.52240467  0.42279913  0.30415218    -0.18210
C310        C  0.57972924  0.42293169  0.29812165     0.10170
S311        S  0.51787547  0.58132960  0.32975231    -0.33180
S312        S  0.60349656  0.36440650  0.28134829    -0.33190
H313        H  0.65437726  0.36753104  0.29473226     0.28180
H314        H  0.50370096  0.59312571  0.30271819     0.28180
H315        H  0.62058108  0.54787040  0.32296749     0.18770
H316        H  0.49516609  0.38761208  0.29889071     0.18780
C317        C  0.11002882  0.51279005  0.31584920    -0.07050
C318        C  0.07609189  0.46774576  0.30740213    -0.18180
C319        C  0.02001865  0.47049827  0.30199772     0.10140
C320        C  0.99479201  0.52093065  0.30470302    -0.06980
C321        C  0.02995557  0.56768140  0.31037336    -0.18210
C322        C  0.08668916  0.56412243  0.31619863     0.10170
S323        S  0.98265369  0.40731405  0.29160924    -0.33180
S324        S  0.12607059  0.62621305  0.32508888    -0.33190
H325        H  0.14837139  0.60386350  0.34835884     0.28180
H326        H  0.02572283  0.37278218  0.29279510     0.28180
H327        H  0.09355137  0.42878266  0.30632183     0.18770
H328        H  0.01274588  0.60677301  0.31169062     0.18780
C329        C  0.92236795  0.02005788  0.28721621    -0.07050
C330        C  0.96657197  0.02644653  0.26850710    -0.18180
C331        C  0.02138605  0.03537155  0.27694453     0.10140
C332        C  0.03402535  0.03781715  0.30494859    -0.06980
C333        C  0.98974722  0.03571827  0.32371595    -0.18210
C334        C  0.93437688  0.02712010  0.31521749     0.10170
S335        S  0.07418852  0.03787575  0.25098898    -0.33180
S336        S  0.88182393  0.02049248  0.34120819    -0.33190
H337        H  0.84866846  0.97956609  0.32799282     0.28180
H338        H  0.11476166  0.06656223  0.26667802     0.28180
H339        H  0.95848875  0.02278724  0.24686865     0.18770
H340        H  0.99851248  0.03566180  0.34533536     0.18780
C341        C  0.53193297  0.97019781  0.30666086    -0.07050
C342        C  0.48840834  0.96557581  0.28775621    -0.18180
C343        C  0.43402877  0.97685139  0.29492239     0.10140
C344        C  0.42180111  0.99361834  0.32176767    -0.06980
C345        C  0.46509113  0.99505932  0.34083651    -0.18210
C346        C  0.51876415  0.98332439  0.33374415     0.10170
S347        S  0.38362586  0.97348979  0.26828955    -0.33180
S348        S  0.57026560  0.98959143  0.35994001    -0.33190
H349        H  0.60680898  0.95630123  0.34713105     0.28180
H350        H  0.36032090  0.02148999  0.27610796     0.28180
H351        H  0.49778055  0.95789381  0.26657347     0.18770
H352        H  0.45731382  0.00552514  0.36184575     0.18780
C353        C  0.26615519  0.29899971  0.36205993    -0.07050
C354        C  0.21701599  0.27409732  0.35120073    -0.18180
C355        C  0.20469275  0.21820988  0.35265146     0.10140
C356        C  0.24166025  0.18611693  0.36569824    -0.06980
C357        C  0.28834735  0.21109091  0.37856964    -0.18210
C358        C  0.30078423  0.26718681  0.37714628     0.10170
S359        S  0.14460647  0.19025193  0.33492630    -0.33180
S360        S  0.36106699  0.29482211  0.39482955    -0.33190
H361        H  0.33453213  0.33780688  0.40651060     0.28180
H362        H  0.17423026  0.15504656  0.31909898     0.28180
H363        H  0.18896244  0.29773451  0.34003307     0.18770
H364        H  0.31635565  0.18636699  0.38915063     0.18780
C365        C  0.25926523  0.80007099  0.32675778    -0.07050
C366        C  0.29937019  0.78190752  0.30937950    -0.18180
C367        C  0.32156244  0.73317917  0.31485913     0.10140
C368        C  0.30349758  0.70390933  0.33834718    -0.06980
C369        C  0.26698817  0.72446205  0.35685318    -0.18210
C370        C  0.24517554  0.77312494  0.35150742     0.10170
S371        S  0.36933119  0.70890727  0.29042151    -0.33180
S372        S  0.20079947  0.79889412  0.37718101    -0.33190
H373        H  0.22125194  0.85368447  0.37440297     0.28180
H374        H  0.34684158  0.65452906  0.29053336     0.28180
H375        H  0.31191169  0.80484021  0.29114044     0.18770
H376        H  0.25400496  0.70141817  0.37501638     0.18780
C377        C  0.49770380  0.90714332  0.04112546    -0.07050
C378        C  0.50016064  0.95032360  0.02184600    -0.18180
C379        C  0.49065581  0.00412337  0.02874594     0.10140
C380        C  0.47912719  0.01781266  0.05593645    -0.06980
C381        C  0.47404554  0.97467123  0.07524769    -0.18210
C382        C  0.48272708  0.91995478  0.06818733     0.10170
S383        S  0.49776280  0.05484627  0.00201910    -0.33180
S384        S  0.47893077  0.86983015  0.09508817    -0.33190
H385        H  0.52295252  0.84176419  0.08537731     0.28180
H386        H  0.46432343  0.09155273  0.01451937     0.28180
H387        H  0.50987536  0.94225785  0.00074434     0.18770
H388        H  0.46746546  0.98430437  0.09647641     0.18780
C389        C  0.55314772  0.52137741  0.05840600    -0.07050
C390        C  0.53632547  0.50906205  0.08523379    -0.18180
C391        C  0.51717442  0.45615542  0.09342481     0.10140
C392        C  0.51875329  0.41119332  0.07521901    -0.06980
C393        C  0.54235133  0.42253165  0.04926615    -0.18210
C394        C  0.55821368  0.47673512  0.04059892     0.10170
S395        S  0.48772305  0.45104168  0.12716209    -0.33180
S396        S  0.57998521  0.48713863  0.00569967    -0.33190
H397        H  0.60826065  0.53836584  0.00988736     0.28180
H398        H  0.43404568  0.43992550  0.11727071     0.28180
H399        H  0.53071471  0.54242943  0.09904676     0.18770
H400        H  0.54592228  0.38941056  0.03510731     0.18780
C401        C  0.46946508  0.58483021  0.45565355    -0.07050
C402        C  0.47011923  0.52875195  0.45041042    -0.18180
C403        C  0.45233762  0.50685382  0.42522707     0.10140
C404        C  0.43330929  0.54185904  0.40509076    -0.06980
C405        C  0.43392592  0.59779195  0.41045254    -0.18210
C406        C  0.45006544  0.61919798  0.43545761     0.10170
S407        S  0.45537647  0.43483758  0.41995390    -0.33180
S408        S  0.43984360  0.69000066  0.44069802    -0.33190
H409        H  0.41882006  0.68331461  0.46734554     0.28180
H410        H  0.46567058  0.43892802  0.39174245     0.28180
H411        H  0.48343902  0.50185180  0.46614906     0.18770
H412        H  0.41821463  0.62509970  0.39551072     0.18780
C413        C  0.36200598  0.90340849  0.40966539    -0.07050
C414        C  0.34839103  0.90479402  0.43744826    -0.18180
C415        C  0.37809407  0.87832490  0.45697053     0.10140
C416        C  0.42347523  0.84982061  0.44869843    -0.06980
C417        C  0.43598197  0.84705248  0.42072326    -0.18210
C418        C  0.40512567  0.87244673  0.40116254     0.10170
S419        S  0.35666317  0.88494072  0.99195409    -0.33180
S420        S  0.42438559  0.86600488  0.36594018    -0.33190
H421        H  0.37264089  0.84147387  0.35852966     0.28180
H422        H  0.41010607  0.89363823  0.00200058     0.28180
H423        H  0.31483331  0.92790872  0.44412166     0.18770
H424        H  0.46970460  0.82430132  0.41395825     0.18780
C425        C  0.03751439  0.47160238  0.06414502    -0.07050
C426        C  0.99507023  0.47467469  0.04499672    -0.18180
C427        C  0.97846223  0.52457324  0.03500590     0.10140
C428        C  0.00404752  0.57527623  0.04415273    -0.06980
C429        C  0.04703806  0.57238422  0.06308292    -0.18210
C430        C  0.06340732  0.52215643  0.07323482     0.10170
S431        S  0.92365834  0.51942030  0.51056718    -0.33180
S432        S  0.11626861  0.52617951  0.09863739    -0.33190
H433        H  0.08207901  0.49912390  0.11844971     0.28180
H434        H  0.95842627  0.53916871  0.48909287     0.28180
H435        H  0.97361061  0.43738811  0.03774205     0.18770
H436        H  0.06834727  0.60980733  0.07025231     0.18780
C437        C  0.01169216  0.08405650  0.05578587    -0.07050
C438        C  0.97487350  0.05730759  0.03706341    -0.18180
C439        C  0.96978698  0.00012688  0.03411275     0.10140
C440        C  0.00197544  0.96726475  0.05011789    -0.06980
C441        C  0.03825955  0.99369651  0.06896423    -0.18210
C442        C  0.04398350  0.05070301  0.07177152     0.10170
S443        S  0.92420141  0.97174475  0.00831745    -0.33180
S444        S  0.09339975  0.07748104  0.09633110    -0.33190
H445        H  0.12193377  0.11232787  0.07726961     0.28180
H446        H  0.89940739  0.93118377  0.02563682     0.28180
H447        H  0.94908269  0.08109668  0.02461787     0.18770
H448        H  0.06462120  0.96952788  0.08092328     0.18780
C449        C  0.14551705  0.56103191  0.41626775    -0.07050
C450        C  0.13667866  0.61577876  0.41058810    -0.18180
C451        C  0.10211450  0.64467081  0.42678533     0.10140
C452        C  0.07594630  0.61893434  0.44959588    -0.06980
C453        C  0.08495712  0.56487620  0.45580969    -0.18210
C454        C  0.11965988  0.53573979  0.43961520     0.10170
S455        S  0.09600818  0.71534580  0.41825410    -0.33180
S456        S  0.13175390  0.46820752  0.45118741    -0.33190
H457        H  0.18900054  0.47565427  0.44716741     0.28180
H458        H  0.04059226  0.71648053  0.42581818     0.28180
H459        H  0.15666884  0.63666252  0.39329626     0.18770
H460        H  0.06624947  0.54585165  0.47395686     0.18780
C461        C  0.07850479  0.88735608  0.45513462    -0.07050
C462        C  0.04702081  0.86921064  0.43262469    -0.18180
C463        C  0.05854791  0.89014951  0.40635903     0.10140
C464        C  0.10298615  0.92994870  0.40219479    -0.06980
C465        C  0.13282985  0.94979757  0.42488930    -0.18210
C466        C  0.12092374  0.92936748  0.45116515     0.10170
S467        S  0.01458098  0.86497549  0.37908452    -0.33180
S468        S  0.16082102  0.95939068  0.47880255    -0.33190
H469        H  0.11635167  0.95848151  0.99721427     0.28180
H470        H  0.01854236  0.91399911  0.36404639     0.28180
H471        H  0.01371865  0.83779823  0.43542705     0.18770
H472        H  0.16671014  0.98057037  0.42209199     0.18780
C473        C  0.81996574  0.77083019  0.50376943    -0.07050
C474        C  0.79435969  0.74513729  0.48126234    -0.18180
C475        C  0.73789047  0.73168900  0.48126093     0.10140
C476        C  0.70710383  0.74310846  0.50456222    -0.06980
C477        C  0.73265057  0.76964548  0.02684451    -0.18610
C478        C  0.78886579  0.78359776  0.02672412     0.10170
S479        S  0.70783989  0.70035413  0.45115501    -0.33180
S480        S  0.81887065  0.81325071  0.05723523    -0.33190
H481        H  0.86308497  0.84269063  0.04414169     0.28180
H482        H  0.65824518  0.72555741  0.45256964     0.28180
H483        H  0.81887508  0.73381668  0.46399998     0.18770
H484        H  0.70851048  0.77935593  0.04453806     0.18780
C485        C  0.20595935  0.71681313  0.05104787    -0.07050
C486        C  0.24152478  0.75105052  0.06679368    -0.18180
C487        C  0.29638026  0.74124336  0.06831940     0.10140
C488        C  0.31404836  0.69759424  0.05328738    -0.06980
C489        C  0.27598451  0.65523963  0.54524472    -0.18210
C490        C  0.22158131  0.66555497  0.54257016     0.10170
S491        S  0.34253817  0.78866079  0.08648850    -0.33180
S492        S  0.17887516  0.61765780  0.52273777    -0.33190
H493        H  0.17655436  0.65435854  0.50073392     0.28180
H494        H  0.38439131  0.75282072  0.08893480     0.28180
H495        H  0.22797299  0.78820021  0.07538068     0.18770
H496        H  0.28953566  0.61897593  0.53571848     0.18780
O497        O  0.16045807  0.78943265  0.53411373    -0.81820
O498        O  0.91229337  0.80973582  0.00231587    -0.66510
O499        O  0.04696130  0.78830318  0.53696861    -1.13110
C500        C  0.04538178  0.64978618  0.96903861     1.05070
O501        O  0.89451385  0.72102292  0.01139529    -0.79720
O502        O  0.95866284  0.63185935  0.51240056    -0.67300
Ni503      Ni  0.10723910  0.84240891  0.53581305     1.34870
C504        C  0.99163816  0.63028682  0.53214145     0.83800
O505        O  0.97333338  0.87150726  0.53954895    -0.80260
O506        O  0.06215403  0.90197189  0.53933508    -0.90530
C507        C  0.87852376  0.76779980  0.00588048     0.83370
O508        O  0.10689695  0.84938654  0.99689991    -0.68740
O509        O  0.99598398  0.65955574  0.96336485    -0.88020
C510        C  0.06676791  0.86148090  0.98218880     0.84200
C511        C  0.01181277  0.90975551  0.54280098     1.05770
H512        H  0.01216306  0.75876201  0.97869105     0.37580
O513        O  0.99825258  0.74501983  0.99607759    -1.10680
O514        O  0.01733386  0.67445783  0.53997788    -0.67340
Ni515      Ni  0.05808007  0.72495694  0.01534640     1.26350
O516        O  0.01673762  0.85228951  0.98988505    -0.67560
O517        O  0.07048794  0.66612728  0.99071949    -0.79860
C518        C  0.15775713  0.73915999  0.54047599     0.83590
O519        O  0.11627896  0.70729450  0.53638875    -0.67030
Ni520      Ni  0.94431247  0.68969706  0.98732646     1.27450
Ni521      Ni  0.98251161  0.80566133  0.51844462     1.26060
H522        H  0.03812907  0.77806185  0.55562169     0.38130
O523        O  0.37773281  0.66510375  0.52318090    -0.81820
O524        O  0.62162558  0.68928309  0.00235533    -0.66510
O525        O  0.48182779  0.68565235  0.53661942    -1.13110
C526        C  0.45781114  0.82172899  0.96819762     1.05070
O527        O  0.62321929  0.77906872  0.00935525    -0.79720
O528        O  0.54461570  0.85270895  0.51072442    -0.67300
Ni529      Ni  0.43141157  0.62227779  0.53635903     1.34870
C530        C  0.51100468  0.85156609  0.53057094     0.83800
O531        O  0.56877899  0.61445058  0.53884177    -0.80260
O532        O  0.48384882  0.57552456  0.54838694    -0.90530
C533        C  0.64769808  0.73617922  0.00510957     0.83370
O534        O  0.44057775  0.59986457  0.99993003    -0.68740
O535        O  0.50896257  0.81955070  0.96239484    -0.88020
C536        C  0.48013691  0.60580403  0.98321796     0.84200
C537        C  0.53568938  0.57433769  0.54777688     1.05770
H538        H  0.51304577  0.72248222  0.97935928     0.37580
O539        O  0.52360819  0.73819209  0.99664500    -1.10680
O540        O  0.48666984  0.80615932  0.53887169    -0.67340
Ni541      Ni  0.45812731  0.74631924  0.01504055     1.26350
O542        O  0.52578803  0.63212299  0.98857625    -0.67560
O543        O  0.43491900  0.80021734  0.98974833    -0.79860
C544        C  0.36451779  0.70400396  0.53751841     0.83590
O545        O  0.39276154  0.74887959  0.53550695    -0.67030
Ni546      Ni  0.56712243  0.79953408  0.98571868     1.27450
Ni547      Ni  0.54979521  0.67993548  0.51830254     1.26060
H548        H  0.48854079  0.69711189  0.55517735     0.38130
O549        O  0.18724441  0.85561701  0.82304797    -0.81820
O550        O  0.19327684  0.09766086  0.86346430    -0.66510
O551        O  0.20245872  0.96933137  0.82171686    -1.13110
C552        C  0.33373088  0.93910743  0.89110585     1.05070
O553        O  0.28426146  0.10688852  0.85773459    -0.79720
O554        O  0.36433365  0.03369157  0.85406882    -0.67300
Ni555      Ni  0.14208818  0.91511054  0.81859406     1.34870
C556        C  0.36555205  0.00623989  0.83230426     0.83800
O557        O  0.12775191  0.05210566  0.82252360    -0.80260
O558        O  0.08971096  0.96797716  0.81362981    -0.90530
C559        C  0.23890365  0.12721165  0.86259287     0.83370
O560        O  0.12668582  0.91010674  0.85676948    -0.68740
O561        O  0.32666623  0.98714090  0.89964851    -0.88020
C562        C  0.12332697  0.94684729  0.87460371     0.84200
C563        C  0.08752933  0.01932335  0.81435024     1.05770
H564        H  0.23060054  0.98680265  0.88144743     0.37580
O565        O  0.24738864  0.00353303  0.86529991    -1.10680
O566        O  0.32073653  0.98595111  0.82187353    -0.67340
Ni567      Ni  0.26252320  0.94647767  0.84306537     1.26350
O568        O  0.13930533  0.99675989  0.87012917    -0.67560
O569        O  0.31733360  0.92122130  0.86773934    -0.79860
C570        C  0.23847259  0.85104723  0.82097192     0.83590
O571        O  0.27325132  0.89085639  0.81918427    -0.67030
Ni572      Ni  0.30595541  0.04785699  0.87885659     1.27450
Ni573      Ni  0.19065770  0.03108266  0.84355658     1.26060
H574        H  0.21525435  0.98112982  0.80379753     0.38130
O575        O  0.35907168  0.63258901  0.84312049    -0.81820
O576        O  0.32526126  0.38303148  0.86072896    -0.66510
O577        O  0.32383277  0.52520099  0.82980409    -1.13110
C578        C  0.18044569  0.53242669  0.89696723     1.05070
O579        O  0.23925679  0.38298784  0.84705434    -0.79720
O580        O  0.16096439  0.45686531  0.84371493    -0.67300
Ni581      Ni  0.38786533  0.57313336  0.82488837     1.34870
C582        C  0.16299509  0.50045861  0.82969963     0.83800
O583        O  0.40447860  0.44181082  0.82920531    -0.80260
O584        O  0.42216686  0.51823794  0.80565050    -0.90530
C585        C  0.27828826  0.35744690  0.85647682     0.83370
O586        O  0.41961921  0.55667636  0.85897689    -0.68740
O587        O  0.17523070  0.48021307  0.89599501    -0.88020
C588        C  0.40891520  0.52430832  0.87880785     0.84200
C589        C  0.43842093  0.47542233  0.81605544     1.05770
H590        H  0.28185045  0.47983773  0.88616821     0.37580
O591        O  0.27007885  0.47546962  0.86750827    -1.10680
O592        O  0.20669603  0.53258508  0.82844216    -0.67340
Ni593      Ni  0.26690798  0.54530799  0.85442953     1.26350
O594        O  0.37527886  0.48227554  0.87725132    -0.67560
O595        O  0.21331801  0.56203538  0.88141027    -0.79860
C596        C  0.31122809  0.64773659  0.84091336     0.83590
O597        O  0.26865002  0.61561695  0.84099886    -0.67030
Ni598      Ni  0.20636134  0.43010438  0.87141139     1.27450
Ni599      Ni  0.33269480  0.45560545  0.84641982     1.26060
H600        H  0.30778834  0.51875259  0.81205614     0.38130
O601        O  0.85426178  0.39688514  0.74560864    -0.81820
O602        O  0.83404695  0.63145185  0.76513599    -0.66510
O603        O  0.81946650  0.47808845  0.77787239    -1.13110
C604        C  0.67068550  0.48682195  0.71631845     1.05070
O605        O  0.74851014  0.61665707  0.77948730    -0.79720
O606        O  0.66746804  0.53657667  0.77842535    -0.67300
Ni607      Ni  0.87968661  0.43630023  0.77676425     1.34870
C608        C  0.66611500  0.48769089  0.78670763     0.83800
O609        O  0.90834694  0.56100439  0.78996477    -0.80260
O610        O  0.90520621  0.47785489  0.80712844    -0.90530
C611        C  0.78749656  0.64967346  0.77107747     0.83370
O612        O  0.92598528  0.47954759  0.75182347    -0.68740
O613        O  0.66788557  0.53653249  0.72378710    -0.88020
C614        C  0.91207742  0.51165406  0.73336730     0.84200
C615        C  0.93269037  0.52222619  0.80187783     1.05770
H616        H  0.77964044  0.54662541  0.72984081     0.37580
O617        O  0.76880801  0.53964454  0.74858471    -1.10680
O618        O  0.70344290  0.45642785  0.78005363    -0.67340
Ni619      Ni  0.76193750  0.46442989  0.75201272     1.26350
O620        O  0.87394896  0.54327500  0.73704720    -0.67560
O621        O  0.70564466  0.45543353  0.72539759    -0.79860
C622        C  0.80847824  0.36939828  0.74543280     0.83590
O623        O  0.76479261  0.38876845  0.75365388    -0.67030
Ni624      Ni  0.70768135  0.57875722  0.75184267     1.27450
Ni625      Ni  0.83451977  0.55367645  0.77083967     1.26060
H626        H  0.80330683  0.47407601  0.79587823     0.38130
O627        O  0.70354390  0.14540345  0.76556643    -0.81820
O628        O  0.68572441  0.89121087  0.75318471    -0.66510
O629        O  0.70868226  0.03639789  0.78007933    -1.13110
C630        C  0.84726821  0.04353315  0.70941969     1.05070
O631        O  0.77568267  0.89360469  0.76089106    -0.79720
O632        O  0.86407020  0.96927014  0.75681589    -0.67300
Ni633      Ni  0.65490547  0.08821686  0.78049817     1.34870
C634        C  0.86642370  0.00433365  0.77564418     0.83800
O635        O  0.62218745  0.95120191  0.78773374    -0.80260
O636        O  0.59971544  0.03700785  0.79488292    -0.90530
C637        C  0.73002031  0.86693254  0.75644338     0.83370
O638        O  0.62880876  0.07461782  0.74466604    -0.68740
O639        O  0.83525452  0.99235835  0.70651317    -0.88020
C640        C  0.62355702  0.03300051  0.72948807     0.84200
C641        C  0.58867200  0.98581084  0.79600886     1.05770
H642        H  0.73587517  0.99479379  0.72371466     0.37580
O643        O  0.75051678  0.98674922  0.74134539    -1.10680
O644        O  0.82404696  0.02845164  0.78231976    -0.67340
Ni645      Ni  0.77124850  0.05350442  0.75637800     1.26350
O646        O  0.64196719  0.98742106  0.73585961    -0.67560
O647        O  0.83005880  0.07005574  0.72987112    -0.79860
C648        C  0.75521336  0.15580021  0.76588068     0.83590
O649        O  0.78723650  0.12069682  0.77206118    -0.67030
Ni650      Ni  0.80576584  0.94145800  0.73353886     1.27450
Ni651      Ni  0.68927489  0.96591845  0.76532492     1.26060
H652        H  0.72131522  0.03190346  0.79851208     0.38130
O653        O  0.14521218  0.31080498  0.60059578    -0.81820
O654        O  0.90851934  0.34540475  0.58327139    -0.66510
O655        O  0.03699494  0.30598930  0.61561400    -1.13110
C656        C  0.00705903  0.14389725  0.56148939     1.05070
O657        O  0.87170031  0.26071314  0.58832341    -0.79720
O658        O  0.92210394  0.17484618  0.60398213    -0.67300
Ni659      Ni  0.09756055  0.35645205  0.62095786     1.34870
C660        C  0.95496603  0.17521930  0.62390234     0.83800
O661        O  0.96805442  0.38698264  0.62437962    -0.80260
O662        O  0.05191050  0.40009139  0.64310513    -0.90530
C663        C  0.86818227  0.31189007  0.58801913     0.83370
O664        O  0.08765405  0.40931502  0.59193959    -0.68740
O665        O  0.96368758  0.16411018  0.55321712    -0.88020
C666        C  0.04631456  0.41626441  0.57684479     0.84200
C667        C  0.00115173  0.41028770  0.64156825     1.05770
H668        H  0.99428193  0.27850355  0.55847755     0.37580
O669        O  0.98162582  0.26567233  0.57625259    -1.10680
O670        O  0.00163126  0.20223685  0.62381669    -0.67340
Ni671      Ni  0.04256655  0.24115749  0.59491703     1.26350
O672        O  0.00944535  0.37755127  0.57317030    -0.67560
O673        O  0.04306760  0.17159039  0.57584559    -0.79860
C674        C  0.15020849  0.26035118  0.60673276     0.83590
O675        O  0.10870004  0.22738653  0.61221262    -0.67030
Ni676      Ni  0.92011428  0.21509979  0.57071401     1.27450
Ni677      Ni  0.97396122  0.32781697  0.59937625     1.26060
H678        H  0.02612861  0.29503617  0.63391624     0.38130
O679        O  0.65356943  0.20334313  0.58489739    -0.81820
O680        O  0.39850357  0.16632656  0.60881927    -0.66510
O681        O  0.53994633  0.19801676  0.57639388    -1.13110
C682        C  0.54925495  0.33774085  0.64517552     1.05070
O683        O  0.39082581  0.25573830  0.60329540    -0.79720
O684        O  0.46451305  0.34718330  0.60317220    -0.67300
Ni685      Ni  0.59589251  0.14823238  0.57605186     1.34870
C686        C  0.49976066  0.35337908  0.58411446     0.83800
O687        O  0.45798034  0.10872064  0.57193872    -0.80260
O688        O  0.54539257  0.08735114  0.56699444    -0.90530
C689        C  0.36938552  0.20686789  0.60504904     0.83370
O690        O  0.58958702  0.12908518  0.61366187    -0.68740
O691        O  0.49975497  0.32071774  0.65174114    -0.88020
C692        C  0.54761142  0.11638732  0.62853833     0.84200
C693        C  0.49387789  0.07502471  0.56553523     1.05770
H694        H  0.50500109  0.22163547  0.63435895     0.37580
O695        O  0.49280470  0.23596195  0.61729521    -1.10680
O696        O  0.52206112  0.31193253  0.57495709    -0.67340
Ni697      Ni  0.55620534  0.26125419  0.59880752     1.26350
O698        O  0.49928819  0.12808355  0.62206285    -0.67560
O699        O  0.57325142  0.32043536  0.62399336    -0.79860
C700        C  0.65883597  0.25475547  0.58148245     0.83590
O701        O  0.61882085  0.28280198  0.57887544    -0.67030
Ni702      Ni  0.44458485  0.28744105  0.62767826     1.27450
Ni703      Ni  0.47194081  0.17499026  0.59395598     1.26060
H704        H  0.53289853  0.20920206  0.55792395     0.38130
C705        C  0.30972049  0.20059563  0.60151147    -0.07050
C706        C  0.27696982  0.18802337  0.62457659    -0.18180
C707        C  0.22434221  0.20657667  0.62676762     0.10140
C708        C  0.20422869  0.23815913  0.60537903    -0.06980
C709        C  0.23514581  0.24634735  0.58141242    -0.18210
C710        C  0.28707090  0.22698743  0.57907972     0.10170
S711        S  0.18724764  0.19293419  0.65830744    -0.33180
S712        S  0.32486613  0.24114020  0.54775919    -0.33190
H713        H  0.36109491  0.20002994  0.55123070     0.28180
H714        H  0.16332054  0.24297179  0.65919257     0.28180
H715        H  0.29445443  0.16876147  0.64204797     0.18770
H716        H  0.21897682  0.26845305  0.56449172     0.18780
C717        C  0.81540097  0.33022909  0.59460993    -0.07050
C718        C  0.78639363  0.34797224  0.57225330    -0.18180
C719        C  0.73392569  0.32403446  0.56719646     0.10140
C720        C  0.71145484  0.28362421  0.58546766    -0.06980
C721        C  0.73690986  0.27457895  0.61029967    -0.18210
C722        C  0.78749420  0.30101488  0.61586293     0.10170
S723        S  0.70076722  0.34232003  0.53609232    -0.33180
S724        S  0.82057091  0.28468140  0.64731625    -0.33190
H725        H  0.86736916  0.32103752  0.64327768     0.28180
H726        H  0.67375971  0.29069214  0.53137733     0.28180
H727        H  0.80768392  0.37246728  0.55643034     0.18770
H728        H  0.71732852  0.24683365  0.62534619     0.18780
C729        C  0.55703693  0.08591886  0.65413904    -0.07050
C730        C  0.59758011  0.04831166  0.65383643    -0.18180
C731        C  0.61602404  0.02504660  0.67789571     0.10140
C732        C  0.59487519  0.04074928  0.70325855    -0.06980
C733        C  0.55129391  0.07498479  0.70335437    -0.18210
C734        C  0.53175424  0.09700962  0.67923644     0.10170
S735        S  0.67041044  0.98027592  0.67488955    -0.33180
S736        S  0.47908036  0.14372829  0.68228162    -0.33190
H737        H  0.44299708  0.11364564  0.66474581     0.28180
H738        H  0.64344523  0.93932156  0.69132921     0.28180
H739        H  0.61652321  0.03827730  0.63466546     0.18770
H740        H  0.53411129  0.08702753  0.72261840     0.18780
C741        C  0.93731112  0.14067395  0.64754304    -0.07050
C742        C  0.92166379  0.08567505  0.64263365    -0.18180
C743        C  0.89551622  0.05205709  0.66266344     0.10140
C744        C  0.88214003  0.07427724  0.68833514    -0.06980
C745        C  0.90013742  0.12918543  0.69344569    -0.18210
C746        C  0.92805406  0.16210031  0.67356860     0.10170
S747        S  0.87885821  0.98215178  0.65319432    -0.33180
S748        S  0.94653175  0.23228667  0.68173602    -0.33190
H749        H  0.00136384  0.23043843  0.67311858     0.28180
H750        H  0.90827834  0.96168995  0.67504608     0.28180
H751        H  0.92905380  0.06891857  0.62266943     0.18770
H752        H  0.89153908  0.14729198  0.71292536     0.18780
C753        C  0.63304485  0.46227700  0.69568684    -0.07050
C754        C  0.65689915  0.44735295  0.67121462    -0.18180
C755        C  0.63085464  0.40794844  0.65436443     0.10140
C756        C  0.57911686  0.38122061  0.66206964    -0.06980
C757        C  0.55385604  0.39905297  0.68598229    -0.18210
C758        C  0.57984948  0.43950764  0.70256139     0.10170
S759        S  0.66859615  0.39215652  0.62437512    -0.33180
S760        S  0.54415987  0.45816934  0.73290340    -0.33190
H761        H  0.56862078  0.51162261  0.73426287     0.28180
H762        H  0.67403883  0.33970676  0.63477635     0.28180
H763        H  0.69815047  0.46406855  0.66603824     0.18770
H764        H  0.51366747  0.38109653  0.69208647     0.18780
C765        C  0.93847194  0.50635569  0.70647397    -0.07050
C766        C  0.90423299  0.49133925  0.68456108    -0.18180
C767        C  0.92365089  0.46302500  0.66210861     0.10140
C768        C  0.97937200  0.44941737  0.66153071    -0.06980
C769        C  0.01467966  0.47057713  0.68216251    -0.18210
C770        C  0.99496492  0.49878476  0.70437673     0.10170
S771        S  0.87541385  0.44362271  0.63534505    -0.33180
S772        S  0.04326841  0.52115059  0.73045172    -0.33190
H773        H  0.01142882  0.56098901  0.74142714     0.28180
H774        H  0.82730781  0.45701538  0.64881316     0.28180
H775        H  0.86092924  0.49755671  0.68621231     0.18770
H776        H  0.05773436  0.46290095  0.68185361     0.18780
C777        C  0.77301917  0.70576632  0.76589995    -0.07050
C778        C  0.73102854  0.72486726  0.78235916    -0.18180
C779        C  0.71078818  0.77545107  0.77778855     0.10140
C780        C  0.73243206  0.80799992  0.75610237    -0.06980
C781        C  0.77249731  0.78812467  0.73884749    -0.18210
C782        C  0.79252867  0.73725384  0.74328506     0.10170
S783        S  0.65967366  0.79722895  0.80116597    -0.33180
S784        S  0.84187832  0.71484092  0.71924422    -0.33190
H785        H  0.81518356  0.66238847  0.71646647     0.28180
H786        H  0.68279230  0.85102880  0.80385375     0.28180
H787        H  0.71435820  0.70050000  0.79940178     0.18770
H788        H  0.79008322  0.81368009  0.72241611     0.18780
C789        C  0.80787550  0.31264470  0.73939224    -0.07050
C790        C  0.84494200  0.28394568  0.75425877    -0.18180
C791        C  0.82941570  0.23168433  0.76326427     0.10140
C792        C  0.77772592  0.20753387  0.75528619    -0.06980
C793        C  0.74637662  0.23303647  0.73581742    -0.18210
C794        C  0.76121955  0.28588415  0.72770025     0.10170
S795        S  0.87359977  0.20211040  0.78764015    -0.33180
S796        S  0.71669144  0.31912700  0.70484389    -0.33190
H797        H  0.75606901  0.36143438  0.69715908     0.28180
H798        H  0.83092682  0.18767160  0.80638447     0.28180
H799        H  0.88171136  0.30494745  0.76267127     0.18770
H800        H  0.70869198  0.21288199  0.72796295     0.18780
C801        C  0.61583046  0.46983970  0.80359301    -0.07050
C802        C  0.59392636  0.51191220  0.81805793    -0.18180
C803        C  0.53745627  0.51474456  0.82107302     0.10140
C804        C  0.49971599  0.46974542  0.81428621    -0.06980
C805        C  0.52240449  0.42279881  0.80415221    -0.18210
C806        C  0.57972904  0.42293129  0.79812165     0.10170
S807        S  0.51787534  0.58132961  0.82975184    -0.33180
S808        S  0.60349633  0.36440591  0.78134846    -0.33190
H809        H  0.65437711  0.36753066  0.79473236     0.28180
H810        H  0.50370064  0.59312531  0.80271770     0.28180
H811        H  0.62058094  0.54787031  0.82296712     0.18770
H812        H  0.49516589  0.38761169  0.79889085     0.18780
C813        C  0.11002866  0.51279000  0.81584922    -0.07050
C814        C  0.07609173  0.46774565  0.80740222    -0.18180
C815        C  0.02001847  0.47049810  0.80199783     0.10140
C816        C  0.99479180  0.52093050  0.80470305    -0.06980
C817        C  0.02995536  0.56768129  0.81037332    -0.18210
C818        C  0.08668897  0.56412236  0.81619860     0.10170
S819        S  0.98265353  0.40731380  0.79160945    -0.33180
S820        S  0.12607039  0.62621304  0.82508877    -0.33190
H821        H  0.14837124  0.60386360  0.84835875     0.28180
H822        H  0.02572242  0.37278172  0.79279588     0.28180
H823        H  0.09355123  0.42878256  0.80632193     0.18770
H824        H  0.01274567  0.60677290  0.81169053     0.18780
C825        C  0.92236770  0.02005736  0.78721616    -0.07050
C826        C  0.96657173  0.02644610  0.76850705    -0.18180
C827        C  0.02138579  0.03537121  0.77694450     0.10140
C828        C  0.03402505  0.03781682  0.80494856    -0.06980
C829        C  0.98974691  0.03571784  0.82371591    -0.18210
C830        C  0.93437660  0.02711958  0.81521744     0.10170
S831        S  0.07418828  0.03787553  0.75098896    -0.33180
S832        S  0.88182362  0.02049186  0.84120813    -0.33190
H833        H  0.84866821  0.97956545  0.82799274     0.28180
H834        H  0.11476135  0.06656209  0.76667800     0.28180
H835        H  0.95848853  0.02278682  0.74686860     0.18770
H836        H  0.99851216  0.03566138  0.84533533     0.18780
C837        C  0.53193277  0.97019755  0.80666063    -0.07050
C838        C  0.48840819  0.96557550  0.78775595    -0.18180
C839        C  0.43402865  0.97685130  0.79492205     0.10140
C840        C  0.42180099  0.99361853  0.82176729    -0.06980
C841        C  0.46509095  0.99505955  0.84083616    -0.18210
C842        C  0.51876392  0.98332438  0.83374388     0.10170
S843        S  0.38362579  0.97348960  0.76828919    -0.33180
S844        S  0.57026530  0.98959145  0.85993977    -0.33190
H845        H  0.60680862  0.95630106  0.84713089     0.28180
H846        H  0.36032082  0.02148983  0.77610753     0.28180
H847        H  0.49778043  0.95789330  0.76657323     0.18770
H848        H  0.45731362  0.00552557  0.86184537     0.18780
C849        C  0.26615496  0.29899997  0.86206031    -0.07050
C850        C  0.21701520  0.27409782  0.85120156    -0.18180
C851        C  0.20469197  0.21821037  0.85265212     0.10140
C852        C  0.24166001  0.18611715  0.86569831    -0.06980
C853        C  0.28834759  0.21109090  0.87856941    -0.18210
C854        C  0.30078450  0.26718680  0.87714620     0.10170
S855        S  0.14460490  0.19025279  0.83492746    -0.33180
S856        S  0.36106802  0.29482173  0.89482897    -0.33190
H857        H  0.33453369  0.33780635  0.90651049     0.28180
H858        H  0.17422798  0.15504775  0.81909959     0.28180
H859        H  0.18896119  0.29773520  0.84003433     0.18770
H860        H  0.31635628  0.18636679  0.88915001     0.18780
C861        C  0.25926547  0.80007119  0.82675772    -0.07050
C862        C  0.29937036  0.78190773  0.80937939    -0.18180
C863        C  0.32156252  0.73317930  0.81485894     0.10140
C864        C  0.30349765  0.70390938  0.83834697    -0.06980
C865        C  0.26698833  0.72446209  0.85685302    -0.18210
C866        C  0.24517580  0.77312506  0.85150734     0.10170
S867        S  0.36933115  0.70890741  0.79042126    -0.33180
S868        S  0.20079984  0.79889422  0.87718098    -0.33190
H869        H  0.22125237  0.85368455  0.87440296     0.28180
H870        H  0.34684147  0.65452922  0.79053308     0.28180
H871        H  0.31191184  0.80484047  0.79114034     0.18770
H872        H  0.25400513  0.70141816  0.87501621     0.18780
C873        C  0.49770357  0.90714201  0.54112534    -0.07050
C874        C  0.50015988  0.95032218  0.52184582    -0.18180
C875        C  0.49065508  0.00412197  0.52874576     0.10140
C876        C  0.47912701  0.01781137  0.55593632    -0.06980
C877        C  0.47404585  0.97467003  0.57524761    -0.18210
C878        C  0.48272736  0.91995357  0.56818726     0.10170
S879        S  0.49776141  0.05484474  0.50201885    -0.33180
S880        S  0.47893162  0.86982905  0.59508815    -0.33190
H881        H  0.52295331  0.84176320  0.58537714     0.28180
H882        H  0.46432221  0.09155119  0.51451926     0.28180
H883        H  0.50987419  0.94225634  0.50074412     0.18770
H884        H  0.46746618  0.98430326  0.59647636     0.18780
C885        C  0.55314903  0.52137637  0.55840596    -0.07050
C886        C  0.53632689  0.50906088  0.58523376    -0.18180
C887        C  0.51717549  0.45615428  0.59342467     0.10140
C888        C  0.51875414  0.41119227  0.57521880    -0.06980
C889        C  0.54235224  0.42253066  0.54926596    -0.18210
C890        C  0.55821480  0.47673415  0.54059881     0.10170
S891        S  0.48772382  0.45104055  0.62716189    -0.33180
S892        S  0.57998628  0.48713781  0.50569956    -0.33190
H893        H  0.60826180  0.53836496  0.50988732     0.28180
H894        H  0.43404651  0.43992465  0.61727039     0.28180
H895        H  0.53071629  0.54242820  0.59904679     0.18770
H896        H  0.54592304  0.38940964  0.53510707     0.18780
C897        C  0.46946542  0.58483142  0.95565329    -0.07050
C898        C  0.47011874  0.52875298  0.95041045    -0.18180
C899        C  0.45233714  0.50685458  0.92522715     0.10140
C900        C  0.43330965  0.54185971  0.90509057    -0.06980
C901        C  0.43392721  0.59779281  0.91045204    -0.18210
C902        C  0.45006669  0.61919913  0.93545706     0.10170
S903        S  0.45537488  0.43483807  0.91995441    -0.33180
S904        S  0.43984562  0.69000209  0.94069710    -0.33190
H905        H  0.41882115  0.68331655  0.96734447     0.28180
H906        H  0.46566964  0.43892780  0.89174300     0.28180
H907        H  0.48343780  0.50185288  0.96614929     0.18770
H908        H  0.41821657  0.62510056  0.89551002     0.18780
C909        C  0.36200681  0.90340981  0.90966515    -0.07050
C910        C  0.34839201  0.90479570  0.93744803    -0.18180
C911        C  0.37809513  0.87832682  0.95697034     0.10140
C912        C  0.42347625  0.84982242  0.94869829    -0.06980
C913        C  0.43598291  0.84705400  0.92072312    -0.18210
C914        C  0.40512648  0.87244797  0.90116235     0.10170
S915        S  0.35666203  0.88493843  0.49195429    -0.33180
S916        S  0.42438611  0.86600555  0.86593999    -0.33190
H917        H  0.37264130  0.84147455  0.85852963     0.28180
H918        H  0.41010490  0.89363626  0.50200080     0.28180
H919        H  0.31483430  0.92791045  0.94412139     0.18770
H920        H  0.46970550  0.82430273  0.91395816     0.18780
C921        C  0.03751430  0.47160210  0.56414497    -0.07050
C922        C  0.99507007  0.47467444  0.54499671    -0.18180
C923        C  0.97846211  0.52457300  0.53500589     0.10140
C924        C  0.00404753  0.57527599  0.54415266    -0.06980
C925        C  0.04703815  0.57238394  0.56308280    -0.18210
C926        C  0.06340735  0.52215613  0.57323472     0.10170
S927        S  0.92365856  0.51942051  0.01056715    -0.33180
S928        S  0.11626867  0.52617917  0.59863727    -0.33190
H929        H  0.08207910  0.49912356  0.61844960     0.28180
H930        H  0.95842656  0.53916896  0.98909287     0.28180
H931        H  0.97361036  0.43738787  0.53774208     0.18770
H932        H  0.06834745  0.60980704  0.57025216     0.18780
C933        C  0.01169187  0.08405617  0.55578593    -0.07050
C934        C  0.97487340  0.05730737  0.53706335    -0.18180
C935        C  0.96978674  0.00012667  0.53411269     0.10140
C936        C  0.00197488  0.96726442  0.55011794    -0.06980
C937        C  0.03825875  0.99369607  0.56896443    -0.18210
C938        C  0.04398282  0.05070256  0.57177173     0.10170
S939        S  0.92420145  0.97174467  0.50831724    -0.33180
S940        S  0.09339868  0.07748043  0.59633153    -0.33190
H941        H  0.12193328  0.11232702  0.57727014     0.28180
H942        H  0.89940732  0.93118350  0.52563647     0.28180
H943        H  0.94908285  0.08109656  0.52461771     0.18770
H944        H  0.06462015  0.96952734  0.58092358     0.18780
C945        C  0.14551722  0.56103225  0.91626776    -0.07050
C946        C  0.13667864  0.61577903  0.91058809    -0.18180
C947        C  0.10211456  0.64467106  0.92678537     0.10140
C948        C  0.07594665  0.61893462  0.94959600    -0.06980
C949        C  0.08495768  0.56487654  0.95580984    -0.18210
C950        C  0.11966036  0.53574017  0.93961530     0.10170
S951        S  0.09600801  0.71534599  0.91825410    -0.33180
S952        S  0.13175468  0.46820800  0.95118755    -0.33190
H953        H  0.18900127  0.47565484  0.94716737     0.28180
H954        H  0.04059204  0.71648050  0.92581812     0.28180
H955        H  0.15666860  0.63666275  0.89329618     0.18770
H956        H  0.06625023  0.54585202  0.97395707     0.18780
C957        C  0.07850546  0.88735597  0.95513468    -0.07050
C958        C  0.04702121  0.86921081  0.93262478    -0.18180
C959        C  0.05854822  0.89014972  0.90635912     0.10140
C960        C  0.10298663  0.92994870  0.90219484    -0.06980
C961        C  0.13283066  0.94979727  0.92488931    -0.18210
C962        C  0.12092465  0.92936711  0.95116516     0.10170
S963        S  0.01458096  0.86497604  0.87908467    -0.33180
S964        S  0.16082239  0.95938993  0.97880251    -0.33190
H965        H  0.11635014  0.95848191  0.49721424     0.28180
H966        H  0.01854254  0.91399970  0.86404657     0.28180
H967        H  0.01371888  0.83779859  0.93542717     0.18770
H968        H  0.16671111  0.98056987  0.92209196     0.18780
C969        C  0.81996596  0.77083069  0.00376955    -0.07050
C970        C  0.79435970  0.74513786  0.98126249    -0.18180
C971        C  0.73789046  0.73168974  0.98126115     0.10140
C972        C  0.70710395  0.74310928  0.00456248    -0.06980
C973        C  0.73265024  0.76964472  0.52684428    -0.18610
C974        C  0.78886542  0.78359719  0.52672396     0.10170
S975        S  0.70783964  0.70035497  0.95115527    -0.33180
S976        S  0.81887006  0.81325028  0.55723509    -0.33190
H977        H  0.86308422  0.84269049  0.54414155     0.28180
H978        H  0.65824506  0.72555847  0.95256994     0.28180
H979        H  0.81887496  0.73381719  0.96400009     0.18770
H980        H  0.70851003  0.77935511  0.54453781     0.18780
C981        C  0.20595952  0.71681315  0.55104713    -0.07050
C982        C  0.24152485  0.75105007  0.56679323    -0.18180
C983        C  0.29638010  0.74124223  0.56831937     0.10140
C984        C  0.31404814  0.69759295  0.55328745    -0.06980
C985        C  0.27598493  0.65524039  0.04524508    -0.18210
C986        C  0.22158138  0.66555494  0.04257105     0.10170
S987        S  0.34253798  0.78865898  0.58648890    -0.33180
S988        S  0.17887482  0.61765675  0.02273944    -0.33190
H989        H  0.17655423  0.65435613  0.00073501     0.28180
H990        H  0.38439072  0.75281847  0.58893531     0.28180
H991        H  0.22797318  0.78819976  0.57538027     0.18770
H992        H  0.28953621  0.61897677  0.03571881     0.18780
loop_ 
_geom_bond_atom_site_label_1 
_geom_bond_atom_site_label_2 
_geom_bond_distance 
_geom_bond_site_symmetry_2 
_ccdc_geom_bond_type 
O1           Ni7   1.916       .  S
O1           C22   1.272       .  A
O2         Ni521   1.903       .  S
O2           C11   1.279       .  A
O3           Ni7   1.905       .  S
O3          Ni25   1.900   1_455  S
O3         Ni515   1.928       .  S
O3           H26   0.966       .  S
C4           O21   1.282       .  A
C4           O13   1.281   1_455  A
C4          C452   1.461       .  S
O5          Ni24   1.900       .  S
O5           C11   1.274       .  A
O6         Ni520   1.932   1_554  S
O6            C8   1.266       .  A
Ni7          O10   1.911       .  S
Ni7         O508   1.916   1_554  S
C8           O18   1.274   1_655  A
C8          C428   1.528   1_655  S
O9          Ni25   1.957       .  S
O9           C15   1.287   1_655  A
O10          C15   1.270       .  A
C11         C473   1.442       .  S
O12        Ni503   1.916       .  S
O12          C14   1.274       .  A
O13         Ni24   1.915       .  S
C14          O20   1.278       .  A
C14         C461   1.485       .  S
C15         C440   1.501       .  S
H16          O17   0.965   1_455  S
O17         Ni19   1.844   1_655  S
O17         Ni24   1.871       .  S
O17        Ni521   1.921       .  S
O18        Ni515   1.940       .  S
Ni19         O21   1.933       .  S
Ni19        O514   1.940       .  S
Ni19        O519   1.841       .  S
Ni19        O499   1.928       .  S
O20        Ni521   1.947   1_455  S
C22          O23   1.249       .  A
C22         C485   1.437       .  S
O23        Ni515   1.841       .  S
Ni24        O502   1.932       .  S
Ni25        O498   1.903       .  S
Ni25        O516   1.947   1_654  S
Ni25        O513   1.921   1_554  S
O27         Ni33   1.864       .  S
O27          C48   1.254       .  A
O28        Ni547   1.912       .  S
O28          C37   1.282       .  A
O29         Ni33   1.909       .  S
O29         Ni51   1.897       .  S
O29        Ni541   1.954       .  S
O29          H52   0.966       .  S
C30          O47   1.284       .  A
C30          O39   1.285       .  A
C30         C416   1.481       .  S
O31         Ni50   1.898       .  S
O31          C37   1.272       .  A
O32        Ni546   1.910   1_554  S
O32          C34   1.268       .  A
Ni33         O36   1.885       .  S
Ni33        O534   1.891   1_554  S
C34          O44   1.286       .  A
C34         C377   1.525       .  S
O35         Ni51   1.985       .  S
O35          C41   1.297       .  A
O36          C41   1.269       .  A
C37         C476   1.447       .  S
O38        Ni529   1.891       .  S
O38          C40   1.262       .  A
O39         Ni50   1.923       .  S
C40          O46   1.274       .  A
C40         C401   1.468       .  S
C41         C389   1.496       .  S
H42          O43   0.963       .  S
O43         Ni45   1.856       .  S
O43         Ni50   1.850       .  S
O43        Ni547   1.933       .  S
O44        Ni541   1.973       .  S
Ni45         O47   1.932       .  S
Ni45        O540   1.973       .  S
Ni45        O545   1.885       .  S
Ni45        O525   1.954       .  S
O46        Ni547   1.944       .  S
C48          O49   1.258       .  A
C48         C488   1.448       .  S
O49        Ni541   1.885       .  S
Ni50        O528   1.910       .  S
Ni51        O524   1.912       .  S
Ni51        O542   1.944   1_554  S
Ni51        O539   1.933   1_554  S
O53         Ni59   1.916       .  S
O53          C74   1.268       .  A
O54         Ni77   1.911       .  S
O54          C63   1.281       .  A
O55         Ni59   1.916       .  S
O55         Ni77   1.905   1_565  S
O55         Ni71   1.927       .  S
O55          H78   0.966       .  S
C56          O73   1.286       .  A
C56          O65   1.282       .  A
C56         C413   1.475       .  S
O57         Ni76   1.893       .  S
O57          C63   1.273       .  A
O58         Ni76   1.922       .  S
O58          C60   1.269       .  A
Ni59         O62   1.913       .  S
Ni59         O64   1.909       .  S
C60          O70   1.278   1_545  A
C60         C344   1.520   1_545  S
O61         Ni77   1.959       .  S
O61          C67   1.288       .  A
O62          C67   1.271   1_565  A
C63         C356   1.456       .  S
O64          C66   1.270       .  A
O65         Ni76   1.909   1_565  S
C66          O72   1.277       .  A
C66         C464   1.485       .  S
C67         C332   1.493       .  S
H68          O69   0.964   1_565  S
O69         Ni77   1.918       .  S
O69         Ni71   1.843   1_545  S
O69         Ni76   1.858       .  S
O70         Ni71   1.947       .  S
Ni71         O75   1.841       .  S
Ni71         O73   1.947       .  S
O72         Ni77   1.945   1_565  S
C74          O75   1.247       .  A
C74         C365   1.419       .  S
O79         Ni85   1.900       .  S
O79         C100   1.260       .  A
O80        Ni103   1.911       .  S
O80          C89   1.283       .  A
O81         Ni85   1.895       .  S
O81        Ni103   1.922       .  S
O81         Ni97   1.932       .  S
O81         H104   0.966       .  S
C82          O99   1.284       .  A
C82          O91   1.283       .  A
C82         C449   1.488       .  S
O83        Ni102   1.890       .  S
O83          C89   1.271       .  A
O84        Ni102   1.907       .  S
O84          C86   1.269       .  A
Ni85         O88   1.899       .  S
Ni85         O90   1.904       .  S
C86          O96   1.277       .  A
C86         C317   1.516       .  S
O87        Ni103   1.995       .  S
O87          C93   1.290       .  A
O88          C93   1.262       .  A
C89         C353   1.470       .  S
O90          C92   1.267       .  A
O91        Ni102   1.927       .  S
C92          O98   1.272       .  A
C92         C404   1.477       .  S
C93         C308   1.516       .  S
H94          O95   0.966       .  S
O95        Ni103   1.937       .  S
O95         Ni97   1.840       .  S
O95        Ni102   1.849       .  S
O96         Ni97   1.960       .  S
Ni97        O101   1.846       .  S
Ni97         O99   1.925       .  S
O98        Ni103   1.930       .  S
C100        O101   1.255       .  A
C100        C368   1.416       .  S
O105       Ni111   1.897       .  S
O105        C126   1.260       .  A
O106       Ni129   1.935       .  S
O106        C115   1.287       .  A
O107       Ni111   1.862       .  S
O107       Ni129   1.897       .  S
O107       Ni123   1.911       .  S
O107        H130   0.966       .  S
C108        O125   1.277       .  A
C108        O117   1.287       .  A
C108        C257   1.472       .  S
O109       Ni128   1.895       .  S
O109        C115   1.266       .  A
O110       Ni128   1.883       .  S
O110        C112   1.266       .  A
Ni111       O114   1.893       .  S
Ni111       O116   1.919       .  S
C112        O122   1.281       .  A
C112        C305   1.511       .  S
O113       Ni129   2.034       .  S
O113        C119   1.302       .  A
O114        C119   1.260       .  A
C115        C281   1.474       .  S
O116        C118   1.265       .  A
O117       Ni128   1.948       .  S
C118        O124   1.273       .  A
C118        C269   1.476       .  S
C119        C320   1.527       .  S
H120        O121   0.966       .  S
O121       Ni129   1.956       .  S
O121       Ni123   1.853       .  S
O121       Ni128   1.847       .  S
O122       Ni123   1.974       .  S
Ni123       O127   1.872       .  S
Ni123       O125   1.904       .  S
O124       Ni129   1.940       .  S
C126        O127   1.267       .  A
C126        C293   1.430       .  S
O131       Ni137   1.907       .  S
O131        C152   1.267       .  A
O132       Ni155   1.933       .  S
O132        C141   1.288       .  A
O133       Ni137   1.903       .  S
O133       Ni155   1.910   1_545  S
O133       Ni149   1.931       .  S
O133        H156   0.966       .  S
C134        O151   1.287       .  A
C134        O143   1.280   1_545  A
C134        C248   1.498       .  S
O135       Ni154   1.886       .  S
O135        C141   1.269       .  A
O136       Ni154   1.917       .  S
O136        C138   1.267   1_565  A
Ni137       O140   1.900       .  S
Ni137       O142   1.897       .  S
C138        O148   1.276       .  A
C138        C329   1.506       .  S
O139       Ni155   1.975       .  S
O139        C145   1.293       .  A
O140        C145   1.269   1_545  A
C141        C284   1.458       .  S
O142        C144   1.269       .  A
O143       Ni154   1.916       .  S
C144        O150   1.280   1_545  A
C144        C236   1.488       .  S
C145        C341   1.498       .  S
H146        O147   0.964       .  S
O147       Ni155   1.931       .  S
O147       Ni149   1.841   1_565  S
O147       Ni154   1.858       .  S
O148       Ni149   1.950       .  S
Ni149       O153   1.844       .  S
Ni149       O151   1.948       .  S
O150       Ni155   1.954       .  S
C152        O153   1.249       .  A
C152        C296   1.439       .  S
O157       Ni163   1.955       .  S
O157        C178   1.292       .  A
O158       Ni181   1.868       .  S
O158        C167   1.253       .  A
O159       Ni163   1.875       .  S
O159       Ni181   1.854   1_455  S
O159       Ni175   1.911       .  S
O159        H182   0.965       .  S
C160        O177   1.286       .  A
C160        O169   1.274   1_455  A
C160        C437   1.515       .  S
O161       Ni180   1.902       .  S
O161        C167   1.270       .  A
O162       Ni180   1.908       .  S
O162        C164   1.269       .  A
Ni163       O166   1.941       .  S
Ni163       O168   1.953       .  S
C164        O174   1.273   1_655  A
C164        C245   1.476       .  S
O165       Ni181   1.924       .  S
O165        C171   1.279   1_655  A
O166        C171   1.287       .  A
C167        C221   1.435       .  S
O168        C170   1.278       .  A
O169       Ni180   1.913       .  S
C170        O176   1.272       .  A
C170        C425   1.527       .  S
C171        C272   1.503   1_455  S
H172        O173   0.966       .  S
O173       Ni181   1.931       .  S
O173       Ni175   1.891   1_655  S
O173       Ni180   1.895       .  S
O174       Ni175   1.934       .  S
Ni175       O179   1.883       .  S
Ni175       O177   1.958       .  S
O176       Ni181   1.924   1_455  S
C178        O179   1.273       .  A
C178        C212   1.469       .  S
O183       Ni189   1.929       .  S
O183        C204   1.272       .  A
O184       Ni207   1.927       .  S
O184        C193   1.285       .  A
O185       Ni189   1.908       .  S
O185       Ni207   1.909       .  S
O185       Ni201   1.929       .  S
O185        H208   0.966       .  S
C186        O203   1.282       .  A
C186        O195   1.285       .  A
C186        C260   1.503       .  S
O187       Ni206   1.906       .  S
O187        C193   1.276       .  A
O188       Ni206   1.924       .  S
O188        C190   1.267       .  A
Ni189       O192   1.920       .  S
Ni189       O194   1.904       .  S
C190        O200   1.277       .  A
C190        C392   1.522       .  S
O191       Ni207   1.971       .  S
O191        C197   1.293       .  A
O192        C197   1.273       .  A
C193        C209   1.464       .  S
O194        C196   1.271       .  A
O195       Ni206   1.933       .  S
C196        O202   1.279       .  A
C196        C233   1.488       .  S
C197        C380   1.505       .  S
H198        O199   0.965       .  S
O199       Ni207   1.932       .  S
O199       Ni201   1.851       .  S
O199       Ni206   1.869       .  S
O200       Ni201   1.946       .  S
Ni201       O205   1.849       .  S
Ni201       O203   1.938       .  S
O202       Ni207   1.949       .  S
C204        O205   1.248       .  A
C204        C224   1.433       .  S
C209        C210   1.400       .  A
C209        C214   1.413       .  A
C210        C211   1.402       .  A
C210        H219   1.084       .  S
C211        C212   1.417       .  A
C211        S215   1.804       .  S
C212        C213   1.398       .  A
C213        C214   1.394       .  A
C213        H220   1.084       .  S
C214        S216   1.805       .  S
S215        H218   1.406       .  S
S216        H217   1.407       .  S
C221        C222   1.397       .  A
C221        C226   1.404       .  A
C222        C223   1.391       .  A
C222        H231   1.084       .  S
C223        C224   1.411       .  A
C223        S227   1.804       .  S
C224        C225   1.397       .  A
C225        C226   1.379       .  A
C225        H232   1.085       .  S
C226        S228   1.805       .  S
S227        H230   1.406       .  S
S228        H229   1.406       .  S
C233        C234   1.409       .  A
C233        C238   1.412       .  A
C234        C235   1.402       .  A
C234        H243   1.084       .  S
C235        C236   1.412       .  A
C235        S239   1.799   1_545  S
C236        C237   1.410       .  A
C237        C238   1.402       .  A
C237        H244   1.084       .  S
C238        S240   1.799       .  S
S239        H242   1.406       .  S
S240        H241   1.407       .  S
C245        C246   1.400       .  A
C245        C250   1.408       .  A
C246        C247   1.399       .  A
C246        H255   1.085       .  S
C247        C248   1.423       .  A
C247        S251   1.801   1_545  S
C248        C249   1.412       .  A
C249        C250   1.402       .  A
C249        H256   1.084       .  S
C250        S252   1.799       .  S
S251        H254   1.408       .  S
S252        H253   1.406   1_655  S
C257        C258   1.395       .  A
C257        C262   1.411       .  A
C258        C259   1.396       .  A
C258        H267   1.085       .  S
C259        C260   1.424       .  A
C259        S263   1.792       .  S
C260        C261   1.411       .  A
C261        C262   1.405       .  A
C261        H268   1.083       .  S
C262        S264   1.801       .  S
S263        H266   1.403       .  S
S264        H265   1.403       .  S
C269        C270   1.400       .  A
C269        C274   1.410       .  A
C270        C271   1.407       .  A
C270        H279   1.083       .  S
C271        C272   1.427       .  A
C271        S275   1.811       .  S
C272        C273   1.409   1_655  A
C273        C274   1.399   1_455  A
C273        H280   1.083       .  S
C274        S276   1.805   1_655  S
S275        H278   1.407       .  S
S276        H277   1.407       .  S
C281        C282   1.413       .  A
C281        C286   1.408       .  A
C282        C283   1.394       .  A
C282        H291   1.084       .  S
C283        C284   1.403       .  A
C283        S287   1.805       .  S
C284        C285   1.409       .  A
C285        C286   1.397       .  A
C285        H292   1.085       .  S
C286        S288   1.801       .  S
S287        H290   1.405       .  S
S288        H289   1.407       .  S
C293        C294   1.399       .  A
C293        C298   1.398       .  A
C294        C295   1.381       .  A
C294        H303   1.085       .  S
C295        C296   1.410       .  A
C295        S299   1.805       .  S
C296        C297   1.405       .  A
C297        C298   1.378       .  A
C297        H304   1.084       .  S
C298        S300   1.805       .  S
S299        H302   1.408       .  S
S300        H301   1.408       .  S
C305        C306   1.399       .  A
C305        C310   1.424       .  A
C306        C307   1.393       .  A
C306        H315   1.085       .  S
C307        C308   1.426       .  A
C307        S311   1.797       .  S
C308        C309   1.413       .  A
C309        C310   1.428       .  A
C309        H316   1.083       .  S
C310        S312   1.798       .  S
S311        H314   1.408       .  S
S312        H313   1.406       .  S
C317        C318   1.397       .  A
C317        C322   1.428       .  A
C318        C319   1.403       .  A
C318        H327   1.082       .  S
C319        C320   1.436   1_455  A
C319        S323   1.817   1_455  S
C320        C321   1.410   1_655  A
C321        C322   1.426       .  A
C321        H328   1.083       .  S
C322        S324   1.798       .  S
S323        H326   1.406   1_655  S
S324        H325   1.397       .  S
C329        C330   1.411       .  A
C329        C334   1.416       .  A
C330        C331   1.405   1_655  A
C330        H339   1.084       .  S
C331        C332   1.411       .  A
C331        S335   1.803       .  S
C332        C333   1.413   1_455  A
C333        C334   1.418       .  A
C333        H340   1.084       .  S
C334        S336   1.800       .  S
S335        H338   1.406       .  S
S336        H337   1.406   1_545  S
C341        C342   1.414       .  A
C341        C346   1.411       .  A
C342        C343   1.420       .  A
C342        H351   1.084       .  S
C343        C344   1.420       .  A
C343        S347   1.799       .  S
C344        C345   1.415       .  A
C345        C346   1.406       .  A
C345        H352   1.083   1_565  S
C346        S348   1.803       .  S
S347        H350   1.407   1_565  S
S348        H349   1.407       .  S
C353        C354   1.412       .  A
C353        C358   1.409       .  A
C354        C355   1.386       .  A
C354        H363   1.083       .  S
C355        C356   1.402       .  A
C355        S359   1.802       .  S
C356        C357   1.407       .  A
C357        C358   1.392       .  A
C357        H364   1.084       .  S
C358        S360   1.802       .  S
S359        H362   1.407       .  S
S360        H361   1.408       .  S
C365        C366   1.396       .  A
C365        C370   1.408       .  A
C366        C367   1.382       .  A
C366        H375   1.085       .  S
C367        C368   1.405       .  A
C367        S371   1.805       .  S
C368        C369   1.394       .  A
C369        C370   1.375       .  A
C369        H376   1.085       .  S
C370        S372   1.807       .  S
S371        H374   1.406       .  S
S372        H373   1.406       .  S
C377        C378   1.417       .  A
C377        C382   1.419       .  A
C378        C379   1.406   1_565  A
C378        H387   1.084       .  S
C379        C380   1.410       .  A
C379        S383   1.804       .  S
C380        C381   1.417   1_545  A
C381        C382   1.425       .  A
C381        H388   1.084       .  S
C382        S384   1.799       .  S
S383        H386   1.407       .  S
S384        H385   1.406       .  S
C389        C390   1.401       .  A
C389        C394   1.421       .  A
C390        C391   1.404       .  A
C390        H399   1.085       .  S
C391        C392   1.430       .  A
C391        S395   1.800       .  S
C392        C393   1.411       .  A
C393        C394   1.422       .  A
C393        H400   1.083       .  S
C394        S396   1.800       .  S
S395        H398   1.408       .  S
S396        H397   1.406       .  S
C401        C402   1.408       .  A
C401        C406   1.408       .  A
C402        C403   1.409       .  A
C402        H411   1.083       .  S
C403        C404   1.413       .  A
C403        S407   1.801       .  S
C404        C405   1.403       .  A
C405        C406   1.386       .  A
C405        H412   1.085       .  S
C406        S408   1.801       .  S
S407        H410   1.407       .  S
S408        H409   1.405       .  S
C413        C414   1.402       .  A
C413        C418   1.411       .  A
C414        C415   1.395       .  A
C414        H423   1.085       .  S
C415        C416   1.417       .  A
C415        S915   1.803       .  S
C416        C417   1.408       .  A
C417        C418   1.400       .  A
C417        H424   1.084       .  S
C418        S420   1.799       .  S
S419        C911   1.803       .  S
S419        H422   1.399   1_556  S
S420        H421   1.407       .  S
C425        C426   1.410   1_455  A
C425        C430   1.426       .  A
C426        C427   1.411       .  A
C426        H435   1.083       .  S
C427        C428   1.427   1_655  A
C427        S927   1.801       .  S
C428        C429   1.412       .  A
C429        C430   1.419       .  A
C429        H436   1.083       .  S
C430        S432   1.798       .  S
S431        C923   1.801       .  S
S431        H434   1.408       .  S
S432        H433   1.406       .  S
C437        C438   1.418   1_455  A
C437        C442   1.420       .  A
C438        C439   1.412       .  A
C438        H447   1.083       .  S
C439        C440   1.412   1_645  A
C439        S443   1.799   1_545  S
C440        C441   1.411       .  A
C441        C442   1.407   1_565  A
C441        H448   1.084       .  S
C442        S444   1.801       .  S
S443        H446   1.404       .  S
S444        H445   1.408       .  S
C449        C450   1.409       .  A
C449        C454   1.420       .  A
C450        C451   1.394       .  A
C450        H459   1.082       .  S
C451        C452   1.407       .  A
C451        S455   1.806       .  S
C452        C453   1.399       .  A
C453        C454   1.400       .  A
C453        H460   1.085       .  S
C454        S456   1.802       .  S
S455        H458   1.403       .  S
S456        H457   1.408       .  S
C461        C462   1.405       .  A
C461        C466   1.416       .  A
C462        C463   1.404       .  A
C462        H471   1.084       .  S
C463        C464   1.416       .  A
C463        S467   1.803       .  S
C464        C465   1.404       .  A
C465        C466   1.401       .  A
C465        H472   1.084       .  S
C466        S468   1.803       .  S
S467        H470   1.408       .  S
S468        H965   1.406       .  S
H469        S964   1.406       .  S
C473        C474   1.402       .  A
C473        C974   1.405       .  A
C474        C475   1.392       .  A
C474        H483   1.085       .  S
C475        C476   1.406       .  A
C475        S479   1.804       .  S
C476        C973   1.402       .  A
C477        C478   1.388       .  A
C477        C972   1.402       .  A
C477        H484   1.085       .  S
C478        C969   1.405       .  A
C478        S480   1.804       .  S
S479        H482   1.406       .  S
S480        H481   1.401       .  S
C485        C486   1.401       .  A
C485        C986   1.412       .  A
C486        C487   1.382       .  A
C486        H495   1.084       .  S
C487        C488   1.402       .  A
C487        S491   1.801       .  S
C488        C985   1.401       .  A
C489        C490   1.379       .  A
C489        C984   1.401       .  A
C489        H496   1.084       .  S
C490        C981   1.412       .  A
C490        S492   1.805       .  S
S491        H494   1.408       .  S
S492        H493   1.408       .  S
O497       Ni503   1.916       .  S
O497        C518   1.272       .  A
O498        C507   1.279       .  A
O499       Ni503   1.905       .  S
O499       Ni521   1.900   1_455  S
O499        H522   0.966       .  S
C500        O517   1.282       .  A
C500        O509   1.281   1_455  A
C500        C948   1.461       .  S
O501       Ni520   1.900   1_554  S
O501        C507   1.274       .  A
O502        C504   1.266       .  A
Ni503       O506   1.911       .  S
C504        O514   1.274   1_655  A
C504        C924   1.528   1_655  S
O505       Ni521   1.957       .  S
O505        C511   1.287   1_655  A
O506        C511   1.270       .  A
C507        C969   1.442       .  S
O508        C510   1.274       .  A
O509       Ni520   1.915       .  S
C510        O516   1.278       .  A
C510        C957   1.485       .  S
C511        C936   1.501       .  S
H512        O513   0.965   1_455  S
O513       Ni515   1.844   1_656  S
O513       Ni520   1.871       .  S
Ni515       O517   1.933   1_554  S
C518        O519   1.249       .  A
C518        C981   1.437       .  S
O523       Ni529   1.864       .  S
O523        C544   1.254       .  A
O524        C533   1.282       .  A
O525       Ni529   1.909       .  S
O525       Ni547   1.897       .  S
O525        H548   0.966       .  S
C526        O543   1.284       .  A
C526        O535   1.285       .  A
C526        C912   1.481       .  S
O527       Ni546   1.898   1_554  S
O527        C533   1.272       .  A
O528        C530   1.268       .  A
Ni529       O532   1.885       .  S
C530        O540   1.286       .  A
C530        C873   1.525       .  S
O531       Ni547   1.985       .  S
O531        C537   1.297       .  A
O532        C537   1.269       .  A
C533        C972   1.447       .  S
O534        C536   1.262       .  A
O535       Ni546   1.923       .  S
C536        O542   1.274       .  A
C536        C897   1.468       .  S
C537        C885   1.496       .  S
H538        O539   0.963       .  S
O539       Ni541   1.856   1_556  S
O539       Ni546   1.850       .  S
Ni541       O543   1.932   1_554  S
C544        O545   1.258       .  A
C544        C984   1.448       .  S
O549       Ni555   1.916       .  S
O549        C570   1.268       .  A
O550       Ni573   1.911       .  S
O550        C559   1.281       .  A
O551       Ni555   1.916       .  S
O551       Ni573   1.905   1_565  S
O551       Ni567   1.927       .  S
O551        H574   0.966       .  S
C552        O569   1.286       .  A
C552        O561   1.282       .  A
C552        C909   1.475       .  S
O553       Ni572   1.893       .  S
O553        C559   1.273       .  A
O554       Ni572   1.922       .  S
O554        C556   1.269       .  A
Ni555       O558   1.913       .  S
Ni555       O560   1.909       .  S
C556        O566   1.278   1_545  A
C556        C840   1.520   1_545  S
O557       Ni573   1.959       .  S
O557        C563   1.288       .  A
O558        C563   1.271   1_565  A
C559        C852   1.456       .  S
O560        C562   1.270       .  A
O561       Ni572   1.909   1_565  S
C562        O568   1.277       .  A
C562        C960   1.485       .  S
C563        C828   1.493       .  S
H564        O565   0.964   1_565  S
O565       Ni573   1.918       .  S
O565       Ni567   1.843   1_545  S
O565       Ni572   1.858       .  S
O566       Ni567   1.947       .  S
Ni567       O571   1.841       .  S
Ni567       O569   1.947       .  S
O568       Ni573   1.945   1_565  S
C570        O571   1.247       .  A
C570        C861   1.419       .  S
O575       Ni581   1.900       .  S
O575        C596   1.260       .  A
O576       Ni599   1.911       .  S
O576        C585   1.283       .  A
O577       Ni581   1.895       .  S
O577       Ni599   1.922       .  S
O577       Ni593   1.932       .  S
O577        H600   0.966       .  S
C578        O595   1.284       .  A
C578        O587   1.283       .  A
C578        C945   1.488       .  S
O579       Ni598   1.890       .  S
O579        C585   1.271       .  A
O580       Ni598   1.907       .  S
O580        C582   1.269       .  A
Ni581       O584   1.899       .  S
Ni581       O586   1.904       .  S
C582        O592   1.277       .  A
C582        C813   1.516       .  S
O583       Ni599   1.995       .  S
O583        C589   1.290       .  A
O584        C589   1.262       .  A
C585        C849   1.470       .  S
O586        C588   1.267       .  A
O587       Ni598   1.927       .  S
C588        O594   1.272       .  A
C588        C900   1.477       .  S
C589        C804   1.516       .  S
H590        O591   0.966       .  S
O591       Ni599   1.937       .  S
O591       Ni593   1.840       .  S
O591       Ni598   1.849       .  S
O592       Ni593   1.960       .  S
Ni593       O597   1.846       .  S
Ni593       O595   1.925       .  S
O594       Ni599   1.930       .  S
C596        O597   1.255       .  A
C596        C864   1.416       .  S
O601       Ni607   1.897       .  S
O601        C622   1.260       .  A
O602       Ni625   1.935       .  S
O602        C611   1.287       .  A
O603       Ni607   1.862       .  S
O603       Ni625   1.897       .  S
O603       Ni619   1.911       .  S
O603        H626   0.966       .  S
C604        O621   1.277       .  A
C604        O613   1.287       .  A
C604        C753   1.472       .  S
O605       Ni624   1.895       .  S
O605        C611   1.266       .  A
O606       Ni624   1.883       .  S
O606        C608   1.266       .  A
Ni607       O610   1.893       .  S
Ni607       O612   1.919       .  S
C608        O618   1.281       .  A
C608        C801   1.511       .  S
O609       Ni625   2.034       .  S
O609        C615   1.302       .  A
O610        C615   1.260       .  A
C611        C777   1.474       .  S
O612        C614   1.265       .  A
O613       Ni624   1.948       .  S
C614        O620   1.273       .  A
C614        C765   1.476       .  S
C615        C816   1.527       .  S
H616        O617   0.966       .  S
O617       Ni625   1.956       .  S
O617       Ni619   1.853       .  S
O617       Ni624   1.847       .  S
O618       Ni619   1.974       .  S
Ni619       O623   1.872       .  S
Ni619       O621   1.904       .  S
O620       Ni625   1.940       .  S
C622        O623   1.267       .  A
C622        C789   1.430       .  S
O627       Ni633   1.907       .  S
O627        C648   1.267       .  A
O628       Ni651   1.933       .  S
O628        C637   1.288       .  A
O629       Ni633   1.903       .  S
O629       Ni651   1.910   1_545  S
O629       Ni645   1.931       .  S
O629        H652   0.966       .  S
C630        O647   1.287       .  A
C630        O639   1.280   1_545  A
C630        C744   1.498       .  S
O631       Ni650   1.886       .  S
O631        C637   1.269       .  A
O632       Ni650   1.917       .  S
O632        C634   1.267   1_565  A
Ni633       O636   1.900       .  S
Ni633       O638   1.897       .  S
C634        O644   1.276       .  A
C634        C825   1.506       .  S
O635       Ni651   1.975       .  S
O635        C641   1.293       .  A
O636        C641   1.269   1_545  A
C637        C780   1.458       .  S
O638        C640   1.269       .  A
O639       Ni650   1.916       .  S
C640        O646   1.280   1_545  A
C640        C732   1.488       .  S
C641        C837   1.498       .  S
H642        O643   0.964       .  S
O643       Ni651   1.931       .  S
O643       Ni645   1.841   1_565  S
O643       Ni650   1.858       .  S
O644       Ni645   1.950       .  S
Ni645       O649   1.844       .  S
Ni645       O647   1.948       .  S
O646       Ni651   1.954       .  S
C648        O649   1.249       .  A
C648        C792   1.439       .  S
O653       Ni659   1.955       .  S
O653        C674   1.292       .  A
O654       Ni677   1.868       .  S
O654        C663   1.253       .  A
O655       Ni659   1.875       .  S
O655       Ni677   1.854   1_455  S
O655       Ni671   1.911       .  S
O655        H678   0.965       .  S
C656        O673   1.286       .  A
C656        O665   1.274   1_455  A
C656        C933   1.515       .  S
O657       Ni676   1.902       .  S
O657        C663   1.270       .  A
O658       Ni676   1.908       .  S
O658        C660   1.269       .  A
Ni659       O662   1.941       .  S
Ni659       O664   1.953       .  S
C660        O670   1.273   1_655  A
C660        C741   1.476       .  S
O661       Ni677   1.924       .  S
O661        C667   1.279   1_655  A
O662        C667   1.287       .  A
C663        C717   1.435       .  S
O664        C666   1.278       .  A
O665       Ni676   1.913       .  S
C666        O672   1.272       .  A
C666        C921   1.527       .  S
C667        C768   1.503   1_455  S
H668        O669   0.966       .  S
O669       Ni677   1.931       .  S
O669       Ni671   1.891   1_655  S
O669       Ni676   1.895       .  S
O670       Ni671   1.934       .  S
Ni671       O675   1.883       .  S
Ni671       O673   1.958       .  S
O672       Ni677   1.924   1_455  S
C674        O675   1.273       .  A
C674        C708   1.469       .  S
O679       Ni685   1.929       .  S
O679        C700   1.272       .  A
O680       Ni703   1.927       .  S
O680        C689   1.285       .  A
O681       Ni685   1.908       .  S
O681       Ni703   1.909       .  S
O681       Ni697   1.929       .  S
O681        H704   0.966       .  S
C682        O699   1.282       .  A
C682        O691   1.285       .  A
C682        C756   1.503       .  S
O683       Ni702   1.906       .  S
O683        C689   1.276       .  A
O684       Ni702   1.924       .  S
O684        C686   1.267       .  A
Ni685       O688   1.920       .  S
Ni685       O690   1.904       .  S
C686        O696   1.277       .  A
C686        C888   1.522       .  S
O687       Ni703   1.971       .  S
O687        C693   1.293       .  A
O688        C693   1.273       .  A
C689        C705   1.464       .  S
O690        C692   1.271       .  A
O691       Ni702   1.933       .  S
C692        O698   1.279       .  A
C692        C729   1.488       .  S
C693        C876   1.505       .  S
H694        O695   0.965       .  S
O695       Ni703   1.932       .  S
O695       Ni697   1.851       .  S
O695       Ni702   1.869       .  S
O696       Ni697   1.946       .  S
Ni697       O701   1.849       .  S
Ni697       O699   1.938       .  S
O698       Ni703   1.949       .  S
C700        O701   1.248       .  A
C700        C720   1.433       .  S
C705        C706   1.400       .  A
C705        C710   1.413       .  A
C706        C707   1.402       .  A
C706        H715   1.084       .  S
C707        C708   1.417       .  A
C707        S711   1.804       .  S
C708        C709   1.398       .  A
C709        C710   1.394       .  A
C709        H716   1.084       .  S
C710        S712   1.805       .  S
S711        H714   1.406       .  S
S712        H713   1.407       .  S
C717        C718   1.397       .  A
C717        C722   1.404       .  A
C718        C719   1.391       .  A
C718        H727   1.084       .  S
C719        C720   1.411       .  A
C719        S723   1.804       .  S
C720        C721   1.397       .  A
C721        C722   1.379       .  A
C721        H728   1.085       .  S
C722        S724   1.805       .  S
S723        H726   1.406       .  S
S724        H725   1.406       .  S
C729        C730   1.409       .  A
C729        C734   1.412       .  A
C730        C731   1.402       .  A
C730        H739   1.084       .  S
C731        C732   1.412       .  A
C731        S735   1.799   1_545  S
C732        C733   1.410       .  A
C733        C734   1.402       .  A
C733        H740   1.084       .  S
C734        S736   1.799       .  S
S735        H738   1.406       .  S
S736        H737   1.407       .  S
C741        C742   1.400       .  A
C741        C746   1.408       .  A
C742        C743   1.399       .  A
C742        H751   1.085       .  S
C743        C744   1.423       .  A
C743        S747   1.801   1_545  S
C744        C745   1.412       .  A
C745        C746   1.402       .  A
C745        H752   1.084       .  S
C746        S748   1.799       .  S
S747        H750   1.408       .  S
S748        H749   1.406   1_655  S
C753        C754   1.395       .  A
C753        C758   1.411       .  A
C754        C755   1.396       .  A
C754        H763   1.085       .  S
C755        C756   1.424       .  A
C755        S759   1.792       .  S
C756        C757   1.411       .  A
C757        C758   1.405       .  A
C757        H764   1.083       .  S
C758        S760   1.801       .  S
S759        H762   1.403       .  S
S760        H761   1.403       .  S
C765        C766   1.400       .  A
C765        C770   1.410       .  A
C766        C767   1.407       .  A
C766        H775   1.083       .  S
C767        C768   1.427       .  A
C767        S771   1.811       .  S
C768        C769   1.409   1_655  A
C769        C770   1.399   1_455  A
C769        H776   1.083       .  S
C770        S772   1.805   1_655  S
S771        H774   1.407       .  S
S772        H773   1.407       .  S
C777        C778   1.413       .  A
C777        C782   1.408       .  A
C778        C779   1.394       .  A
C778        H787   1.084       .  S
C779        C780   1.403       .  A
C779        S783   1.805       .  S
C780        C781   1.409       .  A
C781        C782   1.397       .  A
C781        H788   1.085       .  S
C782        S784   1.801       .  S
S783        H786   1.405       .  S
S784        H785   1.407       .  S
C789        C790   1.399       .  A
C789        C794   1.398       .  A
C790        C791   1.381       .  A
C790        H799   1.085       .  S
C791        C792   1.410       .  A
C791        S795   1.805       .  S
C792        C793   1.405       .  A
C793        C794   1.378       .  A
C793        H800   1.084       .  S
C794        S796   1.805       .  S
S795        H798   1.408       .  S
S796        H797   1.408       .  S
C801        C802   1.399       .  A
C801        C806   1.424       .  A
C802        C803   1.393       .  A
C802        H811   1.085       .  S
C803        C804   1.426       .  A
C803        S807   1.797       .  S
C804        C805   1.413       .  A
C805        C806   1.428       .  A
C805        H812   1.083       .  S
C806        S808   1.798       .  S
S807        H810   1.408       .  S
S808        H809   1.406       .  S
C813        C814   1.397       .  A
C813        C818   1.428       .  A
C814        C815   1.403       .  A
C814        H823   1.082       .  S
C815        C816   1.436   1_455  A
C815        S819   1.817   1_455  S
C816        C817   1.410   1_655  A
C817        C818   1.426       .  A
C817        H824   1.083       .  S
C818        S820   1.798       .  S
S819        H822   1.406   1_655  S
S820        H821   1.397       .  S
C825        C826   1.411       .  A
C825        C830   1.416       .  A
C826        C827   1.405   1_655  A
C826        H835   1.084       .  S
C827        C828   1.411       .  A
C827        S831   1.803       .  S
C828        C829   1.413   1_455  A
C829        C830   1.418       .  A
C829        H836   1.084       .  S
C830        S832   1.800       .  S
S831        H834   1.406       .  S
S832        H833   1.406   1_545  S
C837        C838   1.414       .  A
C837        C842   1.411       .  A
C838        C839   1.420       .  A
C838        H847   1.084       .  S
C839        C840   1.420       .  A
C839        S843   1.799       .  S
C840        C841   1.415       .  A
C841        C842   1.406       .  A
C841        H848   1.083   1_565  S
C842        S844   1.803       .  S
S843        H846   1.407   1_565  S
S844        H845   1.407       .  S
C849        C850   1.412       .  A
C849        C854   1.409       .  A
C850        C851   1.386       .  A
C850        H859   1.083       .  S
C851        C852   1.402       .  A
C851        S855   1.802       .  S
C852        C853   1.407       .  A
C853        C854   1.392       .  A
C853        H860   1.084       .  S
C854        S856   1.802       .  S
S855        H858   1.407       .  S
S856        H857   1.408       .  S
C861        C862   1.396       .  A
C861        C866   1.408       .  A
C862        C863   1.382       .  A
C862        H871   1.085       .  S
C863        C864   1.405       .  A
C863        S867   1.805       .  S
C864        C865   1.394       .  A
C865        C866   1.375       .  A
C865        H872   1.085       .  S
C866        S868   1.807       .  S
S867        H870   1.406       .  S
S868        H869   1.406       .  S
C873        C874   1.417       .  A
C873        C878   1.419       .  A
C874        C875   1.406   1_565  A
C874        H883   1.084       .  S
C875        C876   1.410       .  A
C875        S879   1.804       .  S
C876        C877   1.417   1_545  A
C877        C878   1.425       .  A
C877        H884   1.084       .  S
C878        S880   1.799       .  S
S879        H882   1.407       .  S
S880        H881   1.406       .  S
C885        C886   1.401       .  A
C885        C890   1.421       .  A
C886        C887   1.404       .  A
C886        H895   1.085       .  S
C887        C888   1.430       .  A
C887        S891   1.800       .  S
C888        C889   1.411       .  A
C889        C890   1.422       .  A
C889        H896   1.083       .  S
C890        S892   1.800       .  S
S891        H894   1.408       .  S
S892        H893   1.406       .  S
C897        C898   1.408       .  A
C897        C902   1.408       .  A
C898        C899   1.409       .  A
C898        H907   1.083       .  S
C899        C900   1.413       .  A
C899        S903   1.801       .  S
C900        C901   1.403       .  A
C901        C902   1.386       .  A
C901        H908   1.085       .  S
C902        S904   1.801       .  S
S903        H906   1.407       .  S
S904        H905   1.405       .  S
C909        C910   1.402       .  A
C909        C914   1.411       .  A
C910        C911   1.395       .  A
C910        H919   1.085       .  S
C911        C912   1.417       .  A
C912        C913   1.408       .  A
C913        C914   1.400       .  A
C913        H920   1.084       .  S
C914        S916   1.799       .  S
S915        H918   1.399       .  S
S916        H917   1.407       .  S
C921        C922   1.410   1_455  A
C921        C926   1.426       .  A
C922        C923   1.411       .  A
C922        H931   1.083       .  S
C923        C924   1.427   1_655  A
C924        C925   1.412       .  A
C925        C926   1.419       .  A
C925        H932   1.083       .  S
C926        S928   1.798       .  S
S927        H930   1.408   1_554  S
S928        H929   1.406       .  S
C933        C934   1.418   1_455  A
C933        C938   1.420       .  A
C934        C935   1.412       .  A
C934        H943   1.083       .  S
C935        C936   1.412   1_645  A
C935        S939   1.799   1_545  S
C936        C937   1.411       .  A
C937        C938   1.407   1_565  A
C937        H944   1.084       .  S
C938        S940   1.801       .  S
S939        H942   1.404       .  S
S940        H941   1.408       .  S
C945        C946   1.409       .  A
C945        C950   1.420       .  A
C946        C947   1.394       .  A
C946        H955   1.082       .  S
C947        C948   1.407       .  A
C947        S951   1.806       .  S
C948        C949   1.399       .  A
C949        C950   1.400       .  A
C949        H956   1.085       .  S
C950        S952   1.802       .  S
S951        H954   1.403       .  S
S952        H953   1.408       .  S
C957        C958   1.405       .  A
C957        C962   1.416       .  A
C958        C959   1.404       .  A
C958        H967   1.084       .  S
C959        C960   1.416       .  A
C959        S963   1.803       .  S
C960        C961   1.404       .  A
C961        C962   1.401       .  A
C961        H968   1.084       .  S
C962        S964   1.803       .  S
S963        H966   1.408       .  S
C969        C970   1.402   1_554  A
C970        C971   1.392       .  A
C970        H979   1.085       .  S
C971        C972   1.406   1_556  A
C971        S975   1.804       .  S
C973        C974   1.388       .  A
C973        H980   1.085       .  S
C974        S976   1.804       .  S
S975        H978   1.406       .  S
S976        H977   1.401       .  S
C981        C982   1.401       .  A
C982        C983   1.382       .  A
C982        H991   1.084       .  S
C983        C984   1.402       .  A
C983        S987   1.801       .  S
C985        C986   1.379       .  A
C985        H992   1.084       .  S
C986        S988   1.805       .  S
S987        H990   1.408       .  S
S988        H989   1.408       .  S
