geometry optimzed in LAMMPS
_audit_creation_date              2020-12-01 
_audit_creation_method            'lammps2cif' 
_symmetry_space_group_name_H-M    'P1' 
_symmetry_Int_Tables_number       1 
_symmetry_cell_setting            triclinic 
loop_ 
_symmetry_equiv_pos_as_xyz 
  x,y,z 
_cell_length_a                    40.6058286 
_cell_length_b                    41.05380188174949 
_cell_length_c                    35.97197266979526 
_cell_angle_alpha                 90.105089607906 
_cell_angle_beta                  89.77460737957236 
_cell_angle_gamma                 89.72426799530703 
loop_ 
_atom_site_label 
_atom_site_type_symbol 
_atom_site_fract_x 
_atom_site_fract_y 
_atom_site_fract_z 
_atom_site_charge 
Fe1        Fe  0.44857839  0.42174474  0.63979122     1.65800
Fe2        Fe  0.46536774  0.34915401  0.67900183     1.73200
Fe3        Fe  0.38670332  0.37377556  0.66854068     1.54400
O4          O  0.37304961  0.42190519  0.67245623    -0.81900
O5          O  0.44202296  0.31529700  0.64430433    -0.80200
O6          O  0.41928686  0.44995733  0.67433809    -0.84400
O7          O  0.41193012  0.42010069  0.60015883    -0.79200
O8          O  0.39117091  0.36943594  0.72522932    -0.81000
O9          O  0.99789504  0.35607165  0.63593088    -0.83800
C10         C  0.39044853  0.39938794  0.59026914     0.97000
C11         C  0.38803447  0.44864178  0.67569820     1.04400
O12         O  0.43386231  0.38217923  0.66332341    -1.12700
O13         O  0.49157420  0.38265577  0.71169747    -0.75200
O14         O  0.98651012  0.42738015  0.67713360    -0.78700
O15         O  0.38094393  0.37644698  0.61140314    -0.79400
C16         C  0.99922691  0.41201579  0.70428759     0.95900
O17         O  0.97836632  0.39714341  0.60274838    -0.77300
O18         O  0.43594660  0.33731517  0.72469965    -0.82500
C19         C  0.41132637  0.30944021  0.64400937     0.98500
C20         C  0.40955527  0.34787218  0.74008629     1.04400
O21         O  0.39222970  0.32459359  0.66551300    -0.78200
C22         C  0.99766142  0.37297855  0.60650207     1.02700
Fe23       Fe  0.16358660  0.28139972  0.39130212     1.65800
Fe24       Fe  0.08924263  0.27253688  0.43183573     1.73200
Fe25       Fe  0.11956172  0.34782259  0.41301080     1.54400
O26         O  0.16273188  0.35474472  0.44094676    -0.81900
O27         O  0.05189688  0.30090435  0.40716598    -0.80200
O28         O  0.19290932  0.32118492  0.40628585    -0.84400
O29         O  0.15287900  0.30288158  0.34179601    -0.79200
O30         O  0.09332950  0.34920782  0.46250238    -0.81000
O31         O  0.08841354  0.24462081  0.38439426    -0.83800
C32         C  0.14870440  0.33303044  0.33616916     0.97000
C33         C  0.18989572  0.34687180  0.42604784     1.04400
O34         O  0.12413774  0.30050033  0.41298769    -1.12700
O35         O  0.12393798  0.24160296  0.45793870    -0.75200
O36         O  0.17405583  0.25897217  0.44038546    -0.78700
O37         O  0.14335787  0.35339170  0.36213708    -0.79400
C38         C  0.15539423  0.24190931  0.46098203     0.95900
O39         O  0.14123479  0.23933138  0.37075818    -0.77300
O40         O  0.08495184  0.29817650  0.48097099    -0.82500
C41         C  0.05211851  0.32683752  0.38745587     0.98500
C42         C  0.08239363  0.32870186  0.48584128     1.04400
O43         O  0.07729490  0.34447840  0.38436707    -0.78200
C44         C  0.11136083  0.23137595  0.36588021     1.02700
Fe45       Fe  0.02256297  0.08017486  0.14206442     1.65800
Fe46       Fe  0.01336039  0.15097851  0.18701926     1.73200
Fe47       Fe  0.08881535  0.12607419  0.15861091     1.54400
O48         O  0.10100038  0.08153760  0.18040440    -0.81900
O49         O  0.04100438  0.19145902  0.16827501    -0.80200
O50         O  0.06517207  0.05194246  0.14861639    -0.84400
O51         O  0.03825942  0.09364174  0.09097919    -0.79200
O52         O  0.09179697  0.14717463  0.21159005    -0.81000
O53         O  0.48516727  0.15445448  0.13920531    -0.83800
C54         C  0.06778482  0.09936101  0.08204361     0.97000
C55         C  0.09289448  0.05525602  0.16453963     1.04400
O56         O  0.04190631  0.11891608  0.16350700    -1.12700
O57         O  0.48302214  0.11399654  0.21015234    -0.75200
O58         O  0.50589947  0.06666826  0.19304076    -0.78700
O59         O  0.09006734  0.10699778  0.10516282    -0.79400
C60         C  0.48617648  0.08295173  0.21332498     0.95900
O61         O  0.47719611  0.10197174  0.13022489    -0.77300
O62         O  0.04092225  0.15046781  0.23505522    -0.82500
C63         C  0.06567155  0.19427211  0.14636580     0.98500
C64         C  0.07195389  0.15400718  0.23818879     1.04400
O65         O  0.08162349  0.17007333  0.13433109    -0.78200
C66         C  0.47109867  0.13140896  0.12196177     1.02700
Fe67       Fe  0.33004451  0.20810026  0.88763369     1.65800
Fe68       Fe  0.40175974  0.22537719  0.93115398     1.73200
Fe69       Fe  0.38146085  0.14768299  0.91312544     1.54400
O70         O  0.33420149  0.13021537  0.91033743    -0.81900
O71         O  0.43912686  0.20524424  0.89669656    -0.80200
O72         O  0.30200177  0.17340604  0.91476596    -0.84400
O73         O  0.33842051  0.17733137  0.84303090    -0.79200
O74         O  0.38104151  0.14917879  0.97073290    -0.81000
O75         O  0.39569897  0.25957907  0.88991697    -0.83800
C76         C  0.36233091  0.15923042  0.83253152     0.97000
C77         C  0.30589008  0.14272789  0.91309957     1.04400
O78         O  0.37026946  0.19408907  0.91139965    -1.12700
O79         O  0.36519323  0.24851981  0.96361476    -0.75200
O80         O  0.31962428  0.24052278  0.93001334    -0.78700
O81         O  0.38323551  0.14689953  0.85504893    -0.79400
C82         C  0.33440444  0.25312954  0.95765702     0.95900
O83         O  0.35273660  0.24399621  0.85674850    -0.77300
O84         O  0.41159622  0.19440047  0.97598889    -0.82500
C85         C  0.44584211  0.17502332  0.89591360     0.98500
C86         C  0.39978133  0.16805673  0.98947662     1.04400
O87         O  0.43050771  0.15620574  0.91706064    -0.78200
C88         C  0.37721182  0.26250953  0.86187095     1.02700
Fe89       Fe  0.07410256  0.02735231  0.86831200     1.65800
Fe90       Fe  0.14950123  0.02037953  0.83071210     1.73200
Fe91       Fe  0.11799298  0.09468259  0.85331495     1.54400
O92         O  0.07512366  0.10343440  0.82554508    -0.81900
O93         O  0.18697762  0.04916881  0.85554431    -0.80200
O94         O  0.04474821  0.06788957  0.85634199    -0.84400
O95         O  0.08301952  0.04573068  0.91928425    -0.79200
O96         O  0.14356420  0.09800176  0.80373537    -0.81000
O97         O  0.15003220  0.49193858  0.87838555    -0.83800
C98         C  0.08741817  0.07524913  0.92808830     0.97000
C99         C  0.04784985  0.09482266  0.83919939     1.04400
O100        O  0.11391915  0.04756193  0.84992467    -1.12700
O101        O  0.11541327  0.48901625  0.80335546    -0.75200
O102        O  0.06505812  0.50816738  0.81737459    -0.78700
O103        O  0.09415430  0.09716223  0.90437172    -0.79400
C104        C  0.08409530  0.49016661  0.79816783     0.95900
O105        O  0.09664529  0.48419770  0.88621175    -0.77300
O106        O  0.15275248  0.04757634  0.78272137    -0.82500
C107        C  0.18636789  0.07460970  0.87628919     0.98500
C108        C  0.15394612  0.07833962  0.77894790     1.04400
O109        O  0.16017993  0.09034262  0.88204818    -0.78200
C110        C  0.12634231  0.47782400  0.89474871     1.02700
Fe111      Fe  0.28471356  0.17255827  0.62555453     1.65800
Fe112      Fe  0.26792329  0.10024502  0.58549897     1.73200
Fe113      Fe  0.34628123  0.12371196  0.59713789     1.54400
O114        O  0.36054298  0.17159578  0.59451247    -0.81900
O115        O  0.29067597  0.06574998  0.62020547    -0.80200
O116        O  0.31442043  0.19999755  0.59134529    -0.84400
O117        O  0.32093771  0.16969941  0.66607977    -0.79200
O118        O  0.34183429  0.12086664  0.54030176    -0.81000
O119        O  0.23488393  0.10777024  0.62827098    -0.83800
C120        C  0.34207224  0.14835653  0.67596773     0.97000
C121        C  0.34561260  0.19837791  0.59038516     1.04400
O122        O  0.29926463  0.13273229  0.60210905    -1.12700
O123        O  0.24279131  0.13417650  0.55275875    -0.75200
O124        O  0.24709133  0.17895619  0.58779746    -0.78700
O125        O  0.35145861  0.12539866  0.65450301    -0.79400
C126        C  0.23509191  0.16373086  0.56014321     0.95900
O127        O  0.25394027  0.14872469  0.66195824    -0.77300
O128        O  0.29754558  0.08852126  0.53969313    -0.82500
C129        C  0.32136671  0.05953992  0.62026991     0.98500
C130        C  0.32345300  0.10002181  0.52438268     1.04400
O131        O  0.34020462  0.07452238  0.59854743    -0.78200
C132        C  0.23445017  0.12503367  0.65752705     1.02700
Fe133      Fe  0.40806651  0.45972728  0.37914911     1.65800
Fe134      Fe  0.33572732  0.47645442  0.33616404     1.73200
Fe135      Fe  0.35734919  0.39884520  0.35329878     1.54400
O136        O  0.40468168  0.38179805  0.35458771    -0.81900
O137        O  0.29886193  0.45583856  0.37043440    -0.80200
O138        O  0.43702065  0.42474399  0.35328915    -0.84400
O139        O  0.39902095  0.43001796  0.42426753    -0.79200
O140        O  0.35735825  0.40042540  0.29595132    -0.81000
O141        O  0.34093266  0.01087117  0.37749749    -0.83800
C142        C  0.37566769  0.41111895  0.43397684     0.97000
C143        C  0.43292314  0.39415927  0.35264040     1.04400
O144        O  0.36788885  0.44538017  0.35543044    -1.12700
O145        O  0.37190980  0.00013628  0.30414856    -0.75200
O146        O  0.41852610  0.99099955  0.33601150    -0.78700
O147        O  0.35603766  0.39775434  0.41097583    -0.79400
C148        C  0.40285417  0.00424105  0.30935454     0.95900
O149        O  0.38544164  0.99662095  0.40884933    -0.77300
O150        O  0.32634243  0.44552787  0.29103376    -0.82500
C151        C  0.29239041  0.42562705  0.37168426     0.98500
C152        C  0.33814093  0.41902567  0.27750652     1.04400
O153        O  0.30792881  0.40629163  0.35101908    -0.78200
C154        C  0.36058298  0.01488575  0.40433087     1.02700
Fe155      Fe  0.21749753  0.33295411  0.12539390     1.65800
Fe156      Fe  0.22291485  0.40360330  0.08004600     1.73200
Fe157      Fe  0.14759351  0.37181479  0.10145929     1.54400
O158        O  0.14101706  0.32410092  0.08453911    -0.81900
O159        O  0.19469240  0.44173844  0.10399937    -0.80200
O160        O  0.17783909  0.30179549  0.12127531    -0.84400
O161        O  0.19870932  0.34881211  0.17461888    -0.79200
O162        O  0.14493098  0.38838018  0.04624131    -0.81000
O163        O  0.25159259  0.40727546  0.12710497    -0.83800
C164        C  0.16853166  0.35407217  0.18220672     0.97000
C165        C  0.15006498  0.30099631  0.10552143     1.04400
O166        O  0.19567992  0.36943314  0.10109930    -1.12700
O167        O  0.25407217  0.36725900  0.05508146    -0.75200
O168        O  0.23638399  0.31850956  0.07560261    -0.78700
O169        O  0.14636661  0.35781078  0.15738123    -0.79400
C170        C  0.25402856  0.33581817  0.05403756     0.95900
O171        O  0.26166862  0.35569373  0.13744370    -0.77300
O172        O  0.19556256  0.40561162  0.03168974    -0.82500
C173        C  0.16654346  0.44252521  0.12007637     0.98500
C174        C  0.16539119  0.40134128  0.02356514     1.04400
O175        O  0.14759830  0.41828256  0.12040602    -0.78200
C176        C  0.26723482  0.38534564  0.14418483     1.02700
C177        C  0.32666808  0.40919080  0.23989856    -0.00400
C178        C  0.31778258  0.43372394  0.21459856    -0.12200
C179        C  0.30026865  0.42658245  0.18210141     0.01900
C180        C  0.29116705  0.39403367  0.17411779    -0.00500
C181        C  0.30245093  0.36923448  0.19803099    -0.12200
C182        C  0.31975992  0.37645763  0.23068043     0.01800
H183        H  0.32333171  0.45892879  0.22105196     0.14700
H184        H  0.29603616  0.34408254  0.19252117     0.14700
C185        C  0.32727647  0.34998091  0.25569404     0.36400
C186        C  0.29109186  0.45350616  0.15846523     0.36300
N187        N  0.33311018  0.32873394  0.27575984    -0.44000
N188        N  0.28371966  0.47519681  0.13969746    -0.44000
C189        C  0.33450564  0.08504950  0.48913417    -0.00400
C190        C  0.36673805  0.07279544  0.48738379    -0.12200
C191        C  0.37635119  0.05098096  0.45937984     0.01900
C192        C  0.35338215  0.04117371  0.43196660    -0.00500
C193        C  0.32190710  0.05583544  0.43212577    -0.12200
C194        C  0.31234043  0.07742960  0.46041741     0.01800
H195        H  0.38393062  0.07859668  0.50942529     0.14700
H196        H  0.30410419  0.04947408  0.41096178     0.14700
C197        C  0.27961010  0.09132640  0.45954509     0.36400
C198        C  0.40968282  0.03860136  0.46046990     0.36300
N199        N  0.25347059  0.10264442  0.45860636    -0.44000
N200        N  0.43641032  0.02874139  0.46157887    -0.44000
C201        C  0.13376166  0.45382010  0.92516524    -0.00400
C202        C  0.16470483  0.43821000  0.92586487    -0.12200
C203        C  0.17450910  0.41886708  0.95617740     0.01900
C204        C  0.15339668  0.41489695  0.98728146    -0.00500
C205        C  0.12170757  0.42883115  0.98561508    -0.12200
C206        C  0.11179763  0.44807909  0.95522043     0.01800
H207        H  0.18170574  0.44164353  0.90289968     0.14700
H208        H  0.10520507  0.42636954  0.00920951     0.14700
C209        C  0.07975188  0.46341982  0.95712283     0.36400
C210        C  0.20653857  0.40345419  0.95464781     0.36300
N211        N  0.05407625  0.47572625  0.95866648    -0.44000
N212        N  0.23214934  0.39098760  0.95349504    -0.44000
C213        C  0.17043573  0.09217933  0.74582478    -0.00400
C214        C  0.18842910  0.12107868  0.75029169    -0.12200
C215        C  0.20886897  0.13285536  0.72201679     0.01900
C216        C  0.21090618  0.11601612  0.68764571    -0.00500
C217        C  0.19119098  0.08817630  0.68257575    -0.12200
C218        C  0.17151305  0.07597045  0.71127325     0.01800
H219        H  0.18802967  0.13364102  0.77684751     0.14700
H220        H  0.19193449  0.07497846  0.65645827     0.14700
C221        C  0.15317974  0.04648836  0.70454316     0.36400
C222        C  0.22845041  0.16126241  0.73023615     0.36300
N223        N  0.13870357  0.02274117  0.69914145    -0.44000
N224        N  0.24425804  0.18384717  0.73717264    -0.44000
C225        C  0.31418412  0.27433210  0.98308385    -0.00400
C226        C  0.32891946  0.29976538  0.00342878    -0.12200
C227        C  0.30978224  0.32115893  0.02558770     0.01900
C228        C  0.27521704  0.31757045  0.02733660    -0.00500
C229        C  0.26069100  0.29205440  0.00754208    -0.12200
C230        C  0.27950974  0.27051989  0.98597283     0.01800
H231        H  0.35538328  0.30297553  0.00206881     0.14700
H232        H  0.23429501  0.28837724  0.00974901     0.14700
C233        C  0.26226836  0.24386133  0.96860161     0.36400
C234        C  0.32622878  0.34517087  0.04813549     0.36300
N235        N  0.24820017  0.22259988  0.95484456    -0.44000
N236        N  0.33928490  0.36425793  0.06656719    -0.44000
C237        C  0.36561516  0.15477502  0.79186987    -0.00400
C238        C  0.36365964  0.18302353  0.77008980    -0.12200
C239        C  0.35899618  0.18126494  0.73175356     0.01900
C240        C  0.35515635  0.15063594  0.71437489    -0.00500
C241        C  0.36038635  0.12221539  0.73551212    -0.12200
C242        C  0.36593505  0.12412412  0.77411546     0.01800
H243        H  0.36460441  0.20676032  0.78339687     0.14700
H244        H  0.35832880  0.09853030  0.72233967     0.14700
C245        C  0.37017936  0.09447791  0.79501879     0.36400
C246        C  0.35800311  0.21138850  0.71100251     0.36300
N247        N  0.37402541  0.07063325  0.81157390    -0.44000
N248        N  0.35741738  0.23550819  0.69440311    -0.44000
C249        C  0.27642345  0.12122514  0.91146083    -0.00400
C250        C  0.24591115  0.13466636  0.92109941    -0.12200
C251        C  0.21654167  0.11891753  0.91254345     0.01900
C252        C  0.21699407  0.08861795  0.89294158    -0.00500
C253        C  0.24764872  0.07364493  0.88646653    -0.12200
C254        C  0.27717878  0.08930951  0.89602623     0.01800
H255        H  0.24484416  0.15844020  0.93419696     0.14700
H256        H  0.24869126  0.05013845  0.87271380     0.14700
C257        C  0.30764494  0.07221315  0.88851061     0.36400
C258        C  0.18663805  0.13592708  0.92308495     0.36300
N259        N  0.33196107  0.05819086  0.88292349    -0.44000
N260        N  0.16288484  0.14983112  0.93152208    -0.44000
C261        C  0.47042222  0.15947056  0.87081060    -0.00400
C262        C  0.46291149  0.12778511  0.85847812    -0.12200
C263        C  0.98745170  0.10768618  0.84308823     0.01900
C264        C  0.02019452  0.11850656  0.84075813    -0.00500
C265        C  0.02703494  0.15144755  0.84912307    -0.12200
C266        C  0.50212141  0.17182582  0.86384231     0.01800
H267        H  0.43846065  0.11802943  0.86290381     0.14700
H268        H  0.05218630  0.16011737  0.84753465     0.14700
C269        C  0.51116819  0.20416887  0.87562382     0.36400
C270        C  0.97845152  0.07460072  0.83403104     0.36300
N271        N  0.51854503  0.23004364  0.88520091    -0.44000
N272        N  0.97124151  0.04802354  0.82719979    -0.44000
C273        C  0.42272038  0.02490358  0.28375840    -0.00400
C274        C  0.45536040  0.01524571  0.27655659    -0.12200
C275        C  0.47661129  0.03443377  0.25531191     0.01900
C276        C  0.46538445  0.06422762  0.23997857    -0.00500
C277        C  0.43291606  0.07438580  0.24777156    -0.12200
C278        C  0.41164332  0.05509612  0.26951384     0.01800
H279        H  0.46453219  0.99248900  0.28791945     0.14700
H280        H  0.42393654  0.09718378  0.23639449     0.14700
C281        C  0.37923970  0.06756636  0.27820295     0.36400
C282        C  0.01005996  0.02267530  0.25006662     0.36300
N283        N  0.35335540  0.07776425  0.28534057    -0.44000
N284        N  0.03689237  0.01355552  0.24638174    -0.44000
C285        C  0.44770574  0.13910294  0.09102773    -0.00400
C286        C  0.43697997  0.17148066  0.08635224    -0.12200
C287        C  0.41935209  0.18110764  0.05472439     0.01900
C288        C  0.41139866  0.15802990  0.02695566    -0.00500
C289        C  0.41991398  0.12529407  0.03277555    -0.12200
C290        C  0.43829040  0.11571630  0.06391834     0.01800
H291        H  0.44349079  0.18978177  0.10678616     0.14700
H292        H  0.41441698  0.10742774  0.01144452     0.14700
C293        C  0.44936446  0.08225099  0.06517041     0.36400
C294        C  0.41052051  0.21508521  0.05106479     0.36300
N295        N  0.45839600  0.05547340  0.06575069    -0.44000
N296        N  0.40361936  0.24234276  0.04811611    -0.44000
C297        C  0.12675435  0.27440178  0.11614528    -0.00400
C298        C  0.10085709  0.26535558  0.09235877    -0.12200
C299        C  0.07846839  0.24074144  0.10263341     0.01900
C300        C  0.08053734  0.22614499  0.13802147    -0.00500
C301        C  0.10524861  0.23618880  0.16232486    -0.12200
C302        C  0.12857721  0.25931881  0.15171901     0.01800
H303        H  0.09878497  0.27665821  0.06525577     0.14700
H304        H  0.10769569  0.22417486  0.18904524     0.14700
C305        C  0.15409133  0.26653309  0.17841022     0.36400
C306        C  0.05432431  0.22987360  0.07610568     0.36300
N307        N  0.17444854  0.27187340  0.19998979    -0.44000
N308        N  0.03493736  0.22096754  0.05494697    -0.44000
C309        C  0.11733469  0.02868833  0.16054740    -0.00400
C310        C  0.11068153  0.99857115  0.17667899    -0.12200
C311        C  0.12894205  0.47081327  0.16671949     0.01900
C312        C  0.15353807  0.47260004  0.13846418    -0.00500
C313        C  0.16202051  0.50336834  0.12464895    -0.12200
C314        C  0.14429394  0.03139953  0.13563299     0.01800
H315        H  0.09040789  0.99645621  0.19623604     0.14700
H316        H  0.18093507  0.50535340  0.10341843     0.14700
C317        C  0.15236646  0.06195445  0.11811637     0.36400
C318        C  0.12115028  0.44085465  0.18574720     0.36300
N319        N  0.15917927  0.08619817  0.10370720    -0.44000
N320        N  0.11449646  0.41718456  0.20141746    -0.38400
C321        C  0.07668298  0.09471915  0.04352657    -0.00400
C322        C  0.07094087  0.12004540  0.01841832    -0.12200
C323        C  0.07462410  0.11471861  0.98030924     0.01900
C324        C  0.08478886  0.08367134  0.96752811    -0.00500
C325        C  0.09140724  0.05880907  0.99320270    -0.12200
C326        C  0.08671565  0.06386856  0.03091376     0.01800
H327        H  0.06220093  0.14347671  0.02852927     0.14700
H328        H  0.09924210  0.03487057  0.98374167     0.14700
C329        C  0.08977554  0.03627720  0.05554596     0.36400
C330        C  0.06560896  0.14069449  0.95529173     0.36300
N331        N  0.09168624  0.01362166  0.07450669    -0.44000
N332        N  0.05817659  0.16162944  0.93549353    -0.44000
C333        C  0.17182257  0.22187431  0.48953992    -0.00400
C334        C  0.16911153  0.18780816  0.48863196    -0.12200
C335        C  0.18908507  0.16805191  0.51133960     0.01900
C336        C  0.21210418  0.18254513  0.53577853    -0.00500
C337        C  0.21342994  0.21683528  0.53749817    -0.12200
C338        C  0.19384436  0.23634826  0.51469190     0.01800
H339        H  0.15231154  0.17658664  0.46910928     0.14700
H340        H  0.23054792  0.22872986  0.55611918     0.14700
C341        C  0.19703596  0.27135052  0.51731440     0.36400
C342        C  0.18520313  0.13320454  0.50891741     0.36300
N343        N  0.19955484  0.29936956  0.51930431    -0.44000
N344        N  0.18187846  0.10528337  0.50677579    -0.44000
C345        C  0.08489419  0.16882633  0.27334778    -0.00400
C346        C  0.06348683  0.17229747  0.30401477    -0.12200
C347        C  0.07210464  0.19095852  0.33520323     0.01900
C348        C  0.10288764  0.20705096  0.33639969    -0.00500
C349        C  0.12518015  0.20175647  0.30696852    -0.12200
C350        C  0.11663923  0.18298286  0.27581245     0.01800
H351        H  0.03934993  0.16114510  0.30330024     0.14700
H352        H  0.14900009  0.21356365  0.30739959     0.14700
C353        C  0.14064358  0.18026797  0.24622622     0.36400
C354        C  0.04859439  0.19312359  0.36537139     0.36300
N355        N  0.15992746  0.17810410  0.22256007    -0.44000
N356        N  0.02971049  0.19475506  0.38949812    -0.44000
C357        C  0.46208922  0.37222697  0.35235938    -0.00400
C358        C  0.99241592  0.38447363  0.34027210    -0.12200
C359        C  0.02180559  0.36787533  0.34718461     0.01900
C360        C  0.02164611  0.33920492  0.36940630    -0.00500
C361        C  0.49108029  0.32474070  0.37704663    -0.12200
C362        C  0.46148334  0.34059943  0.36831966     0.01800
H363        H  0.99312295  0.40764696  0.32582275     0.14700
H364        H  0.49034006  0.30185987  0.39205679     0.14700
C365        C  0.43117854  0.32422830  0.37765183     0.36400
C366        C  0.05159355  0.38166976  0.33179103     0.36300
N367        N  0.40696762  0.31074668  0.38458723    -0.44000
N368        N  0.07542039  0.39268577  0.31942819    -0.44000
C369        C  0.26736676  0.41089256  0.39670906    -0.00400
C370        C  0.27479922  0.37982512  0.41119004    -0.12200
C371        C  0.25027084  0.35972085  0.42565534     0.01900
C372        C  0.21737766  0.37050423  0.42593408    -0.00500
C373        C  0.21052189  0.40315120  0.41623057    -0.12200
C374        C  0.23528177  0.42340019  0.40153553     0.01800
H375        H  0.29955489  0.37009944  0.40869205     0.14700
H376        H  0.18524179  0.41176239  0.41633367     0.14700
C377        C  0.22631861  0.45511957  0.38756314     0.36400
C378        C  0.25916106  0.32739157  0.43799919     0.36300
N379        N  0.21914708  0.48054681  0.37626849    -0.44000
N380        N  0.26632626  0.30154254  0.44800006    -0.44000
C381        C  0.15069758  0.34451511  0.29799742    -0.00400
C382        C  0.12638035  0.33449183  0.27304077    -0.12200
C383        C  0.13022773  0.33968353  0.23494618     0.01900
C384        C  0.15930841  0.35447261  0.22169653    -0.00500
C385        C  0.18237968  0.36659078  0.24714303    -0.12200
C386        C  0.17824772  0.36175257  0.28516840     0.01800
H387        H  0.10504154  0.32140034  0.28325233     0.14700
H388        H  0.20452257  0.37846886  0.23716189     0.14700
C389        C  0.20401503  0.37207572  0.30994992     0.36400
C390        C  0.10515742  0.32753028  0.21024829     0.36300
N391        N  0.22505897  0.38022468  0.32936049    -0.44000
N392        N  0.08495457  0.31783693  0.19056632    -0.44000
C393        C  0.02377383  0.43053221  0.72723099    -0.00400
C394        C  0.02429642  0.46474563  0.72355415    -0.12200
C395        C  0.04570334  0.48412821  0.74428737     0.01900
C396        C  0.06778496  0.46971349  0.76960012    -0.00500
C397        C  0.06865895  0.43555372  0.77238251    -0.12200
C398        C  0.04690462  0.41593064  0.75159329     0.01800
H399        H  0.00723263  0.47683012  0.70495348     0.14700
H400        H  0.08518086  0.42425794  0.79220325     0.14700
C401        C  0.54755928  0.38113318  0.75797123     0.36400
C402        C  0.04397485  0.51908019  0.73964975     0.36300
N403        N  0.54837547  0.35327768  0.76278922    -0.44000
N404        N  0.04250797  0.54704422  0.73590798    -0.44000
C405        C  0.37760123  0.40218052  0.55199639    -0.00400
C406        C  0.37278599  0.37393452  0.53048176    -0.12200
C407        C  0.36919188  0.37607423  0.49168686     0.01900
C408        C  0.37109434  0.40674646  0.47431037    -0.00500
C409        C  0.37216745  0.43494544  0.49629696    -0.12200
C410        C  0.37493337  0.43297740  0.53478611     0.01800
H411        H  0.37403415  0.35017979  0.54353330     0.14700
H412        H  0.37212813  0.45872051  0.48313682     0.14700
C413        C  0.37588805  0.46304079  0.55577139     0.36400
C414        C  0.36567544  0.34657224  0.47028828     0.36300
N415        N  0.37658576  0.48716119  0.57244820    -0.44000
N416        N  0.36246805  0.32288251  0.45324196    -0.44000
C417        C  0.36848309  0.47938325  0.67512658    -0.00400
C418        C  0.38569990  0.50832842  0.66916179    -0.12200
C419        C  0.37042713  0.03529698  0.65334560     0.01900
C420        C  0.33643216  0.03410553  0.64415184    -0.00500
C421        C  0.31802021  0.00718587  0.65582803    -0.12200
C422        C  0.33363523  0.47981906  0.67125610     0.01800
H423        H  0.41213595  0.50906828  0.67341436     0.14700
H424        H  0.29173297  0.00652525  0.65060939     0.14700
C425        C  0.31350379  0.45227252  0.68130892     0.36400
C426        C  0.39120296  0.06280504  0.64479397     0.36300
N427        N  0.29731781  0.43026497  0.68947671    -0.44000
N428        N  0.40840822  0.08434979  0.63776456    -0.44000
C429        C  0.39658226  0.28398537  0.62015266    -0.00400
C430        C  0.41523880  0.25684671  0.60905164    -0.12200
C431        C  0.39975739  0.22934163  0.59402431     0.01900
C432        C  0.36495413  0.22897462  0.59016482    -0.00500
C433        C  0.34751701  0.25810683  0.59529445    -0.12200
C434        C  0.36265846  0.28524906  0.61065468     0.01800
H435        H  0.44149686  0.25616225  0.61448280     0.14700
H436        H  0.32109389  0.25887711  0.59086561     0.14700
C437        C  0.34166498  0.31295543  0.61868203     0.36400
C438        C  0.42005180  0.20151479  0.58465912     0.36300
N439        N  0.32424231  0.33461131  0.62532469    -0.44000
N440        N  0.43640531  0.17929336  0.57706913    -0.44000
C441        C  0.06334571  0.34113575  0.51815963    -0.00400
C442        C  0.04180489  0.36750784  0.51233489    -0.12200
C443        C  0.02024545  0.37838346  0.54024442     0.01900
C444        C  0.02057077  0.36334466  0.57568534    -0.00500
C445        C  0.04266133  0.33717968  0.58152031    -0.12200
C446        C  0.06355786  0.32581533  0.55317218     0.01800
H447        H  0.04075478  0.37886549  0.48514695     0.14700
H448        H  0.04340836  0.32504634  0.60824722     0.14700
C449        C  0.08513955  0.29860604  0.56089949     0.36400
C450        C  0.99728677  0.40402452  0.53074511     0.36300
N451        N  0.10238379  0.27676439  0.56707674    -0.44000
N452        N  0.97879259  0.42440722  0.52291082    -0.44000
C453        C  0.39888058  0.33156444  0.77460348    -0.00400
C454        C  0.42252072  0.32490928  0.80183359    -0.12200
C455        C  0.41591446  0.30333705  0.83100085     0.01900
C456        C  0.38472107  0.28802398  0.83360176    -0.00500
C457        C  0.36065436  0.29577337  0.80689633    -0.12200
C458        C  0.36756588  0.31697755  0.77742070     0.01800
H459        H  0.44686246  0.33539211  0.79922970     0.14700
H460        H  0.33678193  0.28424577  0.80805587     0.14700
C461        C  0.34322739  0.32056462  0.74847864     0.36400
C462        C  0.44269350  0.29585685  0.85592329     0.36300
N463        N  0.32384212  0.32308006  0.72514469    -0.44000
N464        N  0.46434306  0.28986840  0.87562943    -0.44000
Fe465      Fe  0.44858852  0.92171633  0.63976688     1.65800
Fe466      Fe  0.46533622  0.84911481  0.67895542     1.73200
Fe467      Fe  0.38668091  0.87380268  0.66852488     1.54400
O468        O  0.37308324  0.92194810  0.67247821    -0.81900
O469        O  0.44195912  0.81528097  0.64427396    -0.80200
O470        O  0.41935671  0.94994242  0.67435403    -0.84400
O471        O  0.41192165  0.92011521  0.60016305    -0.79200
O472        O  0.39117777  0.86943912  0.72521164    -0.81000
O473        O  0.99784510  0.85600748  0.63576054    -0.83800
C474        C  0.39040581  0.89944292  0.59026121     0.97000
C475        C  0.38810474  0.94866453  0.67573206     1.04400
O476        O  0.43384665  0.88215960  0.66328940    -1.12700
O477        O  0.49156464  0.88259427  0.71165352    -0.75200
O478        O  0.98651032  0.92731304  0.67696242    -0.78700
O479        O  0.38087966  0.87650254  0.61138480    -0.79400
C480        C  0.99920923  0.91196558  0.70413826     0.95900
O481        O  0.97826243  0.89706010  0.60258718    -0.77300
O482        O  0.43592572  0.83728219  0.72466325    -0.82500
C483        C  0.41125877  0.80944476  0.64397558     0.98500
C484        C  0.40954692  0.84785773  0.74005998     1.04400
O485        O  0.39215837  0.82461763  0.66545950    -0.78200
C486        C  0.99755112  0.87288940  0.60631226     1.02700
Fe487      Fe  0.16364594  0.78144987  0.39127767     1.65800
Fe488      Fe  0.08924838  0.77254173  0.43165046     1.73200
Fe489      Fe  0.11951291  0.84784970  0.41284310     1.54400
O490        O  0.16264566  0.85483148  0.44085218    -0.81900
O491        O  0.05190157  0.80088590  0.40691529    -0.80200
O492        O  0.19290009  0.82127006  0.40627893    -0.84400
O493        O  0.15298225  0.80289225  0.34173146    -0.79200
O494        O  0.09319292  0.84923134  0.46228018    -0.81000
O495        O  0.08852310  0.74460670  0.38422390    -0.83800
C496        C  0.14876541  0.83303291  0.33607667     0.97000
C497        C  0.18984070  0.84696516  0.42601566     1.04400
O498        O  0.12414145  0.80052949  0.41285993    -1.12700
O499        O  0.12393568  0.74164011  0.45783632    -0.75200
O500        O  0.17406656  0.75906501  0.44041172    -0.78700
O501        O  0.14337910  0.85340583  0.36202070    -0.79400
C502        C  0.15538613  0.74198047  0.46096517     0.95900
O503        O  0.14137850  0.73933936  0.37073288    -0.77300
O504        O  0.08487582  0.79818901  0.48076052    -0.82500
C505        C  0.05210824  0.82682721  0.38721379     0.98500
C506        C  0.08226133  0.82871152  0.48560591     1.04400
O507        O  0.07728427  0.84446884  0.38411548    -0.78200
C508        C  0.11152188  0.73134981  0.36580165     1.02700
Fe509      Fe  0.02256994  0.58018909  0.14213875     1.65800
Fe510      Fe  0.01349911  0.65097227  0.18714411     1.73200
Fe511      Fe  0.08889380  0.62599512  0.15862237     1.54400
O512        O  0.10103355  0.58144505  0.18039328    -0.81900
O513        O  0.04119012  0.69142420  0.16840425    -0.80200
O514        O  0.06516424  0.55190128  0.14860305    -0.84400
O515        O  0.03821776  0.59367990  0.09104249    -0.79200
O516        O  0.09196050  0.64707355  0.21159473    -0.81000
O517        O  0.48528431  0.65452409  0.13929272    -0.83800
C518        C  0.06774268  0.59936297  0.08207481     0.97000
C519        C  0.09290083  0.55518246  0.16450904     1.04400
O520        O  0.04198247  0.61889160  0.16357841    -1.12700
O521        O  0.48311399  0.61403698  0.21025036    -0.75200
O522        O  0.50592956  0.56668239  0.19311747    -0.78700
O523        O  0.09006371  0.60693184  0.10517366    -0.79400
C524        C  0.48623571  0.58298793  0.21341978     0.95900
O525        O  0.47724721  0.60205346  0.13032352    -0.77300
O526        O  0.04111383  0.65037383  0.23514330    -0.82500
C527        C  0.06582307  0.69421975  0.14644155     0.98500
C528        C  0.07215265  0.65389690  0.23822691     1.04400
O529        O  0.08173339  0.67000918  0.13436787    -0.78200
C530        C  0.47119973  0.63149549  0.12203362     1.02700
Fe531      Fe  0.32992842  0.70816276  0.88765195     1.65800
Fe532      Fe  0.40164797  0.72542015  0.93116705     1.73200
Fe533      Fe  0.38131035  0.64771388  0.91322587     1.54400
O534        O  0.33402965  0.63027950  0.91055914    -0.81900
O535        O  0.43897617  0.70527223  0.89668814    -0.80200
O536        O  0.30186846  0.67351504  0.91481942    -0.84400
O537        O  0.33827422  0.67737232  0.84305827    -0.79200
O538        O  0.38099518  0.64924051  0.97084468    -0.81000
O539        O  0.39556700  0.75961964  0.88992942    -0.83800
C540        C  0.36214387  0.65920258  0.83260142     0.97000
C541        C  0.30573045  0.64282995  0.91327230     1.04400
O542        O  0.37014177  0.69413011  0.91144654    -1.12700
O543        O  0.36510093  0.74856573  0.96363678    -0.75200
O544        O  0.31953023  0.74061454  0.93001313    -0.78700
O545        O  0.38301290  0.64685452  0.85514660    -0.79400
C546        C  0.33431933  0.75320158  0.95766416     0.95900
O547        O  0.35263498  0.74402295  0.85672652    -0.77300
O548        O  0.41154479  0.69446725  0.97601109    -0.82500
C549        C  0.44568434  0.67505002  0.89588597     0.98500
C550        C  0.39977303  0.66812110  0.98953724     1.04400
O551        O  0.43036900  0.65621640  0.91703582    -0.78200
C552        C  0.37710365  0.76253937  0.86186293     1.02700
Fe553      Fe  0.07401412  0.52734876  0.86838299     1.65800
Fe554      Fe  0.14947014  0.52044152  0.83090447     1.73200
Fe555      Fe  0.11780934  0.59473665  0.85331003     1.54400
O556        O  0.07494233  0.60336129  0.82549463    -0.81900
O557        O  0.18686069  0.54929374  0.85576127    -0.80200
O558        O  0.04459530  0.56782477  0.85633072    -0.84400
O559        O  0.08286459  0.54581640  0.91932238    -0.79200
O560        O  0.14337857  0.59803068  0.80373429    -0.81000
O561        O  0.15007461  0.99185084  0.87816868    -0.83800
C562        C  0.08725938  0.57534288  0.92809801     0.97000
C563        C  0.04767699  0.59474557  0.83916028     1.04400
O564        O  0.11382290  0.54759807  0.85001899    -1.12700
O565        O  0.11535261  0.98901542  0.80316898    -0.75200
O566        O  0.06505990  0.00825265  0.81729460    -0.78700
O567        O  0.09395925  0.59724904  0.90435975    -0.79400
C568        C  0.08402657  0.99022939  0.79802865     0.95900
O569        O  0.09668667  0.98414903  0.88602066    -0.77300
O570        O  0.15275171  0.54758869  0.78287584    -0.82500
C571        C  0.18620182  0.57478725  0.87641418     0.98500
C572        C  0.15384725  0.57834751  0.77901677     1.04400
O573        O  0.16000083  0.59053105  0.88206051    -0.78200
C574        C  0.12637995  0.97776062  0.89455118     1.02700
Fe575      Fe  0.28463373  0.67255545  0.62566089     1.65800
Fe576      Fe  0.26782653  0.60027400  0.58552848     1.73200
Fe577      Fe  0.34618794  0.62370940  0.59717204     1.54400
O578        O  0.36043740  0.67158896  0.59454486    -0.81900
O579        O  0.29057566  0.56575146  0.62020557    -0.80200
O580        O  0.31432610  0.70002196  0.59146847    -0.84400
O581        O  0.32088032  0.66968770  0.66617447    -0.79200
O582        O  0.34174557  0.62086485  0.54033105    -0.81000
O583        O  0.23478781  0.60778525  0.62831082    -0.83800
C584        C  0.34199790  0.64831729  0.67603190     0.97000
C585        C  0.34551661  0.69838003  0.59045490     1.04400
O586        O  0.29917673  0.63274272  0.60216005    -1.12700
O587        O  0.24271004  0.63424208  0.55281975    -0.75200
O588        O  0.24698660  0.67898800  0.58792021    -0.78700
O589        O  0.35136816  0.62537676  0.65453748    -0.79400
C590        C  0.23499823  0.66378799  0.56023862     0.95900
O591        O  0.25388367  0.64868193  0.66206034    -0.77300
O592        O  0.29743888  0.58854740  0.53970886    -0.82500
C593        C  0.32126611  0.55953279  0.62027859     0.98500
C594        C  0.32336371  0.60002118  0.52441037     1.04400
O595        O  0.34012081  0.57452197  0.59858122    -0.78200
C596        C  0.23437313  0.62501164  0.65759606     1.02700
Fe597      Fe  0.40803564  0.95976725  0.37908166     1.65800
Fe598      Fe  0.33567520  0.97652030  0.33613553     1.73200
Fe599      Fe  0.35727119  0.89891274  0.35327166     1.54400
O600        O  0.40460526  0.88184908  0.35454008    -0.81900
O601        O  0.29881680  0.95594085  0.37044576    -0.80200
O602        O  0.43697451  0.92477344  0.35322056    -0.84400
O603        O  0.39900018  0.93006069  0.42420655    -0.79200
O604        O  0.35724927  0.90048740  0.29592023    -0.81000
O605        O  0.34092438  0.51079665  0.37755767    -0.83800
C606        C  0.37562804  0.91119283  0.43394296     0.97000
C607        C  0.43285829  0.89419189  0.35260784     1.04400
O608        O  0.36783671  0.94543776  0.35538753    -1.12700
O609        O  0.37197180  0.50011159  0.30421244    -0.75200
O610        O  0.41857387  0.49097206  0.33609266    -0.78700
O611        O  0.35598068  0.89783515  0.41095471    -0.79400
C612        C  0.40291416  0.50422628  0.30943476     0.95900
O613        O  0.38543806  0.49656754  0.40890939    -0.77300
O614        O  0.32623546  0.94559298  0.29102377    -0.82500
C615        C  0.29232947  0.92573309  0.37169760     0.98500
C616        C  0.33802562  0.91909179  0.27748702     1.04400
O617        O  0.30785061  0.90639133  0.35102136    -0.78200
C618        C  0.36056378  0.51481464  0.40440229     1.02700
Fe619      Fe  0.21746849  0.83306722  0.12531534     1.65800
Fe620      Fe  0.22285557  0.90371297  0.07999063     1.73200
Fe621      Fe  0.14754432  0.87188147  0.10137290     1.54400
O622        O  0.14098250  0.82414117  0.08449891    -0.81900
O623        O  0.19462866  0.94182748  0.10395218    -0.80200
O624        O  0.17783392  0.80188852  0.12123839    -0.84400
O625        O  0.19869351  0.84893616  0.17453501    -0.79200
O626        O  0.14489121  0.88841185  0.04613209    -0.81000
O627        O  0.25151667  0.90739097  0.12705749    -0.83800
C628        C  0.16851327  0.85417936  0.18212671     0.97000
C629        C  0.15006249  0.80105054  0.10548764     1.04400
O630        O  0.19562977  0.86952918  0.10102312    -1.12700
O631        O  0.25401545  0.86737979  0.05501487    -0.75200
O632        O  0.23631756  0.81862863  0.07551992    -0.78700
O633        O  0.14633929  0.85790594  0.15730651    -0.79400
C634        C  0.25395894  0.83593941  0.05395610     0.95900
O635        O  0.26164331  0.85581187  0.13731570    -0.77300
O636        O  0.19551054  0.90571987  0.03164406    -0.82500
C637        C  0.16647046  0.94260735  0.12000313     0.98500
C638        C  0.16535731  0.90139949  0.02347893     1.04400
O639        O  0.14751910  0.91836700  0.12029320    -0.78200
C640        C  0.26717698  0.88545889  0.14410815     1.02700
C641        C  0.32654297  0.90926886  0.23987914    -0.00400
C642        C  0.31768629  0.93380920  0.21457325    -0.12200
C643        C  0.30020320  0.92667586  0.18205181     0.01900
C644        C  0.29108452  0.89413374  0.17406560    -0.00500
C645        C  0.30232583  0.86932869  0.19799402    -0.12200
C646        C  0.31962001  0.87654070  0.23065502     0.01800
H647        H  0.32325050  0.95901019  0.22102876     0.14700
H648        H  0.29589580  0.84418129  0.19247999     0.14700
C649        C  0.32712020  0.85005627  0.25566305     0.36400
C650        C  0.29110089  0.95359411  0.15837029     0.36300
N651        N  0.33294393  0.82879896  0.27571800    -0.44000
N652        N  0.28379395  0.97527613  0.13955728    -0.44000
C653        C  0.33444446  0.58500668  0.48919137    -0.00400
C654        C  0.36664361  0.57265860  0.48753845    -0.12200
C655        C  0.37626555  0.55082273  0.45955912     0.01900
C656        C  0.35334393  0.54109182  0.43205676    -0.00500
C657        C  0.32190322  0.55583141  0.43213428    -0.12200
C658        C  0.31232451  0.57744228  0.46041076     0.01800
H659        H  0.38379703  0.57840628  0.50963716     0.14700
H660        H  0.30413619  0.54952705  0.41090990     0.14700
C661        C  0.27963340  0.59142476  0.45945160     0.36400
C662        C  0.40955213  0.53833425  0.46077834     0.36300
N663        N  0.25352749  0.60281448  0.45844660    -0.44000
N664        N  0.43624104  0.52838194  0.46199166    -0.44000
C665        C  0.13378842  0.95377613  0.92498634    -0.00400
C666        C  0.16477151  0.93825354  0.92577268    -0.12200
C667        C  0.17457248  0.91895847  0.95612106     0.01900
C668        C  0.15339896  0.91492060  0.98716417    -0.00500
C669        C  0.12167537  0.92876713  0.98541069    -0.12200
C670        C  0.11178050  0.94799144  0.95499066     0.01800
H671        H  0.18181493  0.94173554  0.90285712     0.14700
H672        H  0.10513154  0.92626526  0.00896224     0.14700
C673        C  0.07970325  0.96327421  0.95682338     0.36400
C674        C  0.20668220  0.90370278  0.95470344     0.36300
N675        N  0.05400603  0.97554144  0.95830866    -0.44000
N676        N  0.23236594  0.89137958  0.95364098    -0.44000
C677        C  0.17032954  0.59216632  0.74587791    -0.00400
C678        C  0.18822406  0.62113188  0.75028746    -0.12200
C679        C  0.20866256  0.63290750  0.72201121     0.01900
C680        C  0.21082447  0.61597842  0.68770620    -0.00500
C681        C  0.19120701  0.58806254  0.68268711    -0.12200
C682        C  0.17149885  0.57588360  0.71137546     0.01800
H683        H  0.18773701  0.63376379  0.77679935     0.14700
H684        H  0.19203642  0.57480004  0.65661488     0.14700
C685        C  0.15319338  0.54637837  0.70467795     0.36400
C686        C  0.22808207  0.66144065  0.73015016     0.36300
N687        N  0.13872274  0.52262332  0.69930197    -0.44000
N688        N  0.24375074  0.68413433  0.73702679    -0.44000
C689        C  0.31411591  0.77441260  0.98308276    -0.00400
C690        C  0.32883301  0.79994363  0.00328126    -0.12200
C691        C  0.30969020  0.82134905  0.02541631     0.01900
C692        C  0.27513723  0.81768756  0.02725596    -0.00500
C693        C  0.26063390  0.79207666  0.00759904    -0.12200
C694        C  0.27946546  0.77051007  0.98609368     0.01800
H695        H  0.35528579  0.80321289  0.00183445     0.14700
H696        H  0.23425267  0.78833509  0.00989198     0.14700
C697        C  0.26227788  0.74370229  0.96896251     0.36400
C698        C  0.32612532  0.84543086  0.04787662     0.36300
N699        N  0.24823918  0.72231692  0.95542247    -0.44000
N700        N  0.33916926  0.86456862  0.06625062    -0.44000
C701        C  0.36544797  0.65468329  0.79195065    -0.00400
C702        C  0.36378564  0.68292015  0.77011878    -0.12200
C703        C  0.35917065  0.68114939  0.73177032     0.01900
C704        C  0.35507959  0.65053583  0.71444119    -0.00500
C705        C  0.36000793  0.62209947  0.73563743    -0.12200
C706        C  0.36550117  0.62400900  0.77425004     0.01800
H707        H  0.36492218  0.70666237  0.78338992     0.14700
H708        H  0.35773949  0.59841863  0.72250196     0.14700
C709        C  0.36938068  0.59435333  0.79522416     0.36400
C710        C  0.35849345  0.71123906  0.71094291     0.36300
N711        N  0.37292098  0.57049729  0.81184273    -0.44000
N712        N  0.35817054  0.73532907  0.69427987    -0.44000
C713        C  0.27623328  0.62136538  0.91169746    -0.00400
C714        C  0.24571708  0.63493632  0.92108354    -0.12200
C715        C  0.21634078  0.61923563  0.91246337     0.01900
C716        C  0.21679421  0.58882495  0.89309532    -0.00500
C717        C  0.24743215  0.57372685  0.88690307    -0.12200
C718        C  0.27696595  0.58936408  0.89650104     0.01800
H719        H  0.24465604  0.65878256  0.93399507     0.14700
H720        H  0.24846478  0.55013594  0.87334058     0.14700
C721        C  0.30741390  0.57214289  0.88927309     0.36400
C722        C  0.18644402  0.63641934  0.92265788     0.36300
N723        N  0.33171013  0.55802011  0.88391220    -0.44000
N724        N  0.16269988  0.65046541  0.93081507    -0.44000
C725        C  0.47025606  0.65951847  0.87076429    -0.00400
C726        C  0.46273848  0.62784890  0.85838366    -0.12200
C727        C  0.98727829  0.60761602  0.84306151     0.01900
C728        C  0.02002215  0.61842840  0.84071463    -0.00500
C729        C  0.02687320  0.65137104  0.84906045    -0.12200
C730        C  0.50196015  0.67187316  0.86383229     0.01800
H731        H  0.43828314  0.61809688  0.86278173     0.14700
H732        H  0.05202594  0.66003530  0.84745865     0.14700
C733        C  0.51100970  0.70420400  0.87565513     0.36400
C734        C  0.97826644  0.57453208  0.83401524     0.36300
N735        N  0.51838957  0.73006887  0.88526390    -0.44000
N736        N  0.97104065  0.54795814  0.82718938    -0.44000
C737        C  0.42279281  0.52491929  0.28386534    -0.00400
C738        C  0.45548717  0.51535633  0.27679626    -0.12200
C739        C  0.47673004  0.53456905  0.25556464     0.01900
C740        C  0.46544410  0.56428399  0.24009763    -0.00500
C741        C  0.43292679  0.57435994  0.24776703    -0.12200
C742        C  0.41166116  0.55505230  0.26950435     0.01800
H743        H  0.46470906  0.49265505  0.28824999     0.14700
H744        H  0.42390422  0.59710297  0.23629117     0.14700
C745        C  0.37920180  0.56744721  0.27806445     0.36400
C746        C  0.01021155  0.52278289  0.25030602     0.36300
N747        N  0.35327228  0.57758474  0.28510192    -0.44000
N748        N  0.03707507  0.51373237  0.24669255    -0.44000
C749        C  0.44783861  0.63920421  0.09106151    -0.00400
C750        C  0.43710776  0.67157994  0.08637205    -0.12200
C751        C  0.41944652  0.68119116  0.05475412     0.01900
C752        C  0.41147629  0.65810557  0.02699741    -0.00500
C753        C  0.42003781  0.62537932  0.03280934    -0.12200
C754        C  0.43843612  0.61581589  0.06394620     0.01800
H755        H  0.44361817  0.68988586  0.10680029     0.14700
H756        H  0.41454182  0.60750737  0.01148422     0.14700
C757        C  0.44953567  0.58235871  0.06519784     0.36400
C758        C  0.41056736  0.71515714  0.05110334     0.36300
N759        N  0.45859043  0.55558888  0.06578793    -0.44000
N760        N  0.40361805  0.74240298  0.04815536    -0.44000
C761        C  0.12679975  0.77441887  0.11612553    -0.00400
C762        C  0.10097587  0.76525011  0.09230177    -0.12200
C763        C  0.07864482  0.74058890  0.10258892     0.01900
C764        C  0.08067187  0.72608858  0.13803269    -0.00500
C765        C  0.10531719  0.73624013  0.16236109    -0.12200
C766        C  0.12861469  0.75939534  0.15173449     0.01800
H767        H  0.09892805  0.77648501  0.06515980     0.14700
H768        H  0.10774310  0.72429159  0.18912074     0.14700
C769        C  0.15409960  0.76668691  0.17843456     0.36400
C770        C  0.05461595  0.72955786  0.07601498     0.36300
N771        N  0.17443810  0.77208408  0.20001822    -0.44000
N772        N  0.03532621  0.72050522  0.05482415    -0.44000
C773        C  0.11732770  0.52860521  0.16049198    -0.00400
C774        C  0.11069375  0.49849987  0.17665859    -0.12200
C775        C  0.12889701  0.97087702  0.16668920     0.01900
C776        C  0.15347863  0.97267216  0.13842134    -0.00500
C777        C  0.16198795  0.00344761  0.12464799    -0.12200
C778        C  0.14429522  0.53131557  0.13558766     0.01800
H779        H  0.09041779  0.49638917  0.19621409     0.14700
H780        H  0.18089808  0.00543801  0.10341294     0.14700
C781        C  0.15234928  0.56186093  0.11803785     0.36400
C782        C  0.12109062  0.94090416  0.18567982     0.36300
N783        N  0.15914696  0.58609566  0.10359975    -0.44000
N784        N  0.11442859  0.91722210  0.20132207    -0.38400
C785        C  0.07659888  0.59475547  0.04354439    -0.00400
C786        C  0.07080083  0.62009017  0.01846161    -0.12200
C787        C  0.07448027  0.61479529  0.98034580     0.01900
C788        C  0.08468220  0.58376912  0.96753779    -0.00500
C789        C  0.09138028  0.55891061  0.99319018    -0.12200
C790        C  0.08669497  0.56393524  0.03090411     0.01800
H791        H  0.06203108  0.64350202  0.02859854     0.14700
H792        H  0.09926225  0.53499355  0.98370789     0.14700
C793        C  0.08981002  0.53632740  0.05550310     0.36400
C794        C  0.06543914  0.64078080  0.95535333     0.36300
N795        N  0.09176318  0.51365096  0.07442572    -0.44000
N796        N  0.05798981  0.66172818  0.93558005    -0.44000
C797        C  0.17178086  0.72194597  0.48956092    -0.00400
C798        C  0.16909204  0.68787785  0.48863479    -0.12200
C799        C  0.18903762  0.66812305  0.51137777     0.01900
C800        C  0.21201070  0.68261486  0.53587435    -0.00500
C801        C  0.21330214  0.71690612  0.53762687    -0.12200
C802        C  0.19374358  0.73641999  0.51478227     0.01800
H803        H  0.15233369  0.67665290  0.46906898     0.14700
H804        H  0.23037715  0.72880012  0.55629860     0.14700
C805        C  0.19689848  0.77142311  0.51744042     0.36400
C806        C  0.18517794  0.63327445  0.50893011     0.36300
N807        N  0.19938622  0.79944341  0.51946074    -0.44000
N808        N  0.18187610  0.60535137  0.50677438    -0.44000
C809        C  0.08514438  0.66869801  0.27336229    -0.00400
C810        C  0.06382337  0.67201176  0.30412359    -0.12200
C811        C  0.07243461  0.69070310  0.33528683     0.01900
C812        C  0.10312419  0.70696894  0.33636465    -0.00500
C813        C  0.12536067  0.70181039  0.30685098    -0.12200
C814        C  0.11682148  0.68301939  0.27570860     0.01800
H815        H  0.03974833  0.66072589  0.30349405     0.14700
H816        H  0.14910999  0.71375815  0.30719713     0.14700
C817        C  0.14072606  0.68049191  0.24599776     0.36400
C818        C  0.04900937  0.69273724  0.36554878     0.36300
N819        N  0.15992631  0.67848389  0.22222804    -0.44000
N820        N  0.03019252  0.69427049  0.38974943    -0.44000
C821        C  0.46201017  0.87223929  0.35238499    -0.00400
C822        C  0.99237949  0.88452149  0.34013193    -0.12200
C823        C  0.02176341  0.86787762  0.34697159     0.01900
C824        C  0.02161383  0.83921853  0.36921519    -0.00500
C825        C  0.49099745  0.82479756  0.37719683    -0.12200
C826        C  0.46140209  0.84069280  0.36854964     0.01800
H827        H  0.99308633  0.90767888  0.32564929     0.14700
H828        H  0.49026111  0.80198541  0.39234240     0.14700
C829        C  0.43110045  0.82447864  0.37824962     0.36400
C830        C  0.05154164  0.88161156  0.33148228     0.36300
N831        N  0.40688562  0.81113159  0.38550382    -0.44000
N832        N  0.07536040  0.89258085  0.31904432    -0.44000
C833        C  0.26731130  0.91100560  0.39673715    -0.00400
C834        C  0.27474366  0.87993267  0.41119837    -0.12200
C835        C  0.25021695  0.85981883  0.42564620     0.01900
C836        C  0.21732141  0.87060314  0.42594337    -0.00500
C837        C  0.21046871  0.90325862  0.41627347    -0.12200
C838        C  0.23522783  0.92351388  0.40158433     0.01800
H839        H  0.29949727  0.87020470  0.40868299     0.14700
H840        H  0.18518969  0.91187326  0.41639210     0.14700
C841        C  0.22626332  0.95524533  0.38764932     0.36400
C842        C  0.25911335  0.82746962  0.43791790     0.36300
N843        N  0.21908299  0.98068234  0.37639010    -0.44000
N844        N  0.26629093  0.80160267  0.44784756    -0.44000
C845        C  0.15074986  0.84450517  0.29790342    -0.00400
C846        C  0.12642926  0.83447811  0.27295405    -0.12200
C847        C  0.13024404  0.83972062  0.23486580     0.01900
C848        C  0.15929984  0.85455737  0.22161664    -0.00500
C849        C  0.18237265  0.86667656  0.24706188    -0.12200
C850        C  0.17826752  0.86179504  0.28508255     0.01800
H851        H  0.10510944  0.82135634  0.28316538     0.14700
H852        H  0.20449574  0.87859070  0.23708108     0.14700
C853        C  0.20402065  0.87214287  0.30987169     0.36400
C854        C  0.10516981  0.82757047  0.21017034     0.36300
N855        N  0.22504205  0.88031138  0.32930346    -0.44000
N856        N  0.08496515  0.81787727  0.19049052    -0.44000
C857        C  0.02367260  0.93053286  0.72712342    -0.00400
C858        C  0.02374717  0.96477756  0.72387624    -0.12200
C859        C  0.04510693  0.98421223  0.74460104     0.01900
C860        C  0.06760898  0.96982051  0.76947397    -0.00500
C861        C  0.06889337  0.93564067  0.77183505    -0.12200
C862        C  0.04716365  0.91596585  0.75106445     0.01800
H863        H  0.00636440  0.97682823  0.70562244     0.14700
H864        H  0.08572902  0.92434481  0.79131667     0.14700
C865        C  0.54749201  0.88106229  0.75800555     0.36400
C866        C  0.04288483  0.01918359  0.74040716     0.36300
N867        N  0.54824842  0.85321113  0.76286686    -0.44000
N868        N  0.04100070  0.04716130  0.73703049    -0.44000
C869        C  0.37754916  0.90229442  0.55198776    -0.00400
C870        C  0.37246609  0.87407674  0.53050018    -0.12200
C871        C  0.36885425  0.87622359  0.49170234     0.01900
C872        C  0.37105669  0.90686339  0.47429144    -0.00500
C873        C  0.37237466  0.93506226  0.49625736    -0.12200
C874        C  0.37511813  0.93309810  0.53474588     0.01800
H875        H  0.37349502  0.85032207  0.54357345     0.14700
H876        H  0.37252501  0.95882990  0.48308237     0.14700
C877        C  0.37628899  0.96317189  0.55569558     0.36400
C878        C  0.36495094  0.84674938  0.47034348     0.36300
N879        N  0.37716179  0.98729854  0.57234766    -0.44000
N880        N  0.36141069  0.82308956  0.45333059    -0.44000
C881        C  0.36859615  0.97943029  0.67517856    -0.00400
C882        C  0.38583768  0.00834313  0.66909874    -0.12200
C883        C  0.37029146  0.53529006  0.65342228     0.01900
C884        C  0.33631500  0.53407966  0.64414534    -0.00500
C885        C  0.31791382  0.50711510  0.65569959    -0.12200
C886        C  0.33374136  0.97990459  0.67141983     0.01800
H887        H  0.41228478  0.00905774  0.67327180     0.14700
H888        H  0.29164035  0.50643111  0.65039808     0.14700
C889        C  0.31360328  0.95241281  0.68165132     0.36400
C890        C  0.39106076  0.56282415  0.64496298     0.36300
N891        N  0.29742020  0.93044701  0.68997268    -0.44000
N892        N  0.40827422  0.58438156  0.63801059    -0.44000
C893        C  0.39651724  0.78398256  0.62013674    -0.00400
C894        C  0.41516473  0.75681606  0.60911356    -0.12200
C895        C  0.39967973  0.72930169  0.59412237     0.01900
C896        C  0.36488014  0.72896033  0.59020485    -0.00500
C897        C  0.34746050  0.75811371  0.59525230    -0.12200
C898        C  0.36260494  0.78526158  0.61059437     0.01800
H899        H  0.44141448  0.75611575  0.61459352     0.14700
H900        H  0.32104355  0.75889862  0.59078052     0.14700
C901        C  0.34162233  0.81298719  0.61857003     0.36400
C902        C  0.41996499  0.70143346  0.58489305     0.36300
N903        N  0.32420519  0.83465623  0.62517466    -0.44000
N904        N  0.43631094  0.67917581  0.57742293    -0.44000
C905        C  0.06315958  0.84111017  0.51788689    -0.00400
C906        C  0.04133748  0.86723213  0.51195440    -0.12200
C907        C  0.01976810  0.87805511  0.53988011     0.01900
C908        C  0.02039445  0.86324419  0.57544305    -0.00500
C909        C  0.04273310  0.83730206  0.58136003    -0.12200
C910        C  0.06362391  0.82596739  0.55299213     0.01800
H911        H  0.04008403  0.87841519  0.48468270     0.14700
H912        H  0.04369387  0.82533288  0.60817426     0.14700
C913        C  0.08547246  0.79898213  0.56078495     0.36400
C914        C  0.99646758  0.90336355  0.53027445     0.36300
N915        N  0.10293355  0.77731803  0.56699991    -0.44000
N916        N  0.97769500  0.92347159  0.52235991    -0.44000
C917        C  0.39886365  0.83155527  0.77458025    -0.00400
C918        C  0.42250313  0.82485050  0.80179582    -0.12200
C919        C  0.41586104  0.80330166  0.83097566     0.01900
C920        C  0.38464164  0.78804126  0.83358763    -0.00500
C921        C  0.36057941  0.79583582  0.80689439    -0.12200
C922        C  0.36751664  0.81703804  0.77742266     0.01800
H923        H  0.44686552  0.83528789  0.79918130     0.14700
H924        H  0.33668296  0.78435455  0.80807028     0.14700
C925        C  0.34315797  0.82071408  0.74851666     0.36400
C926        C  0.44261948  0.79580064  0.85591801     0.36300
N927        N  0.32375971  0.82331464  0.72520827    -0.44000
N928        N  0.46424435  0.78979677  0.87565244    -0.44000
Fe929      Fe  0.94831348  0.42181050  0.63999723     1.65800
Fe930      Fe  0.96513586  0.34917424  0.67904432     1.73200
Fe931      Fe  0.88643944  0.37369588  0.66851695     1.54400
O932        O  0.87262631  0.42175809  0.67247126    -0.81900
O933        O  0.94190706  0.31540081  0.64411757    -0.80200
O934        O  0.91879229  0.44990814  0.67443429    -0.84400
O935        O  0.91181690  0.42010395  0.60025449    -0.79200
O936        O  0.89087381  0.36931819  0.72518953    -0.81000
O937        O  0.49799500  0.35590094  0.63569024    -0.83800
C938        C  0.89023926  0.39949819  0.59035823     0.97000
C939        C  0.88753592  0.44853239  0.67565546     1.04400
O940        O  0.93360439  0.38218693  0.66337901    -1.12700
O941        O  0.99120512  0.38262933  0.71194378    -0.75200
O942        O  0.48697809  0.42729010  0.67671028    -0.78700
O943        O  0.88070144  0.37651040  0.61140854    -0.79400
C944        C  0.49972888  0.41197336  0.70388223     0.95900
O945        O  0.47835946  0.39691421  0.60247445    -0.77300
O946        O  0.93565107  0.33720851  0.72460047    -0.82500
C947        C  0.91121386  0.30952632  0.64374428     0.98500
C948        C  0.90928921  0.34777620  0.74002600     1.04400
O949        O  0.89211397  0.32452713  0.66538530    -0.78200
C950        C  0.49759843  0.37270694  0.60617937     1.02700
Fe951      Fe  0.66366275  0.28165023  0.39088151     1.65800
Fe952      Fe  0.58920875  0.27242308  0.43117347     1.73200
Fe953      Fe  0.61931266  0.34790085  0.41263575     1.54400
O954        O  0.66250321  0.35500050  0.44049152    -0.81900
O955        O  0.55176641  0.30053658  0.40619119    -0.80200
O956        O  0.69285073  0.32150362  0.40595410    -0.84400
O957        O  0.65293663  0.30312520  0.34138726    -0.79200
O958        O  0.59319369  0.34916098  0.46217562    -0.81000
O959        O  0.58875843  0.24437047  0.38383460    -0.83800
C960        C  0.64845503  0.33322883  0.33573453     0.97000
C961        C  0.68972486  0.34717397  0.42570926     1.04400
O962        O  0.62405333  0.30057363  0.41249255    -1.12700
O963        O  0.62403011  0.24178831  0.45757189    -0.75200
O964        O  0.67412014  0.25922673  0.43996658    -0.78700
O965        O  0.64293848  0.35357544  0.36167821    -0.79400
C966        C  0.65549218  0.24218880  0.46063381     0.95900
O967        O  0.64161508  0.23948383  0.37020230    -0.77300
O968        O  0.58445126  0.29806565  0.48024482    -0.82500
C969        C  0.55190082  0.32668738  0.38684492     0.98500
C970        C  0.58206116  0.32857709  0.48529411     1.04400
O971        O  0.57697255  0.34451716  0.38416618    -0.78200
C972        C  0.61181525  0.23127008  0.36536611     1.02700
Fe973      Fe  0.52236219  0.08015636  0.14209163     1.65800
Fe974      Fe  0.51340987  0.15108391  0.18690062     1.73200
Fe975      Fe  0.58876052  0.12608384  0.15810927     1.54400
O976        O  0.60106588  0.08151733  0.17976788    -0.81900
O977        O  0.54092243  0.19154419  0.16786428    -0.80200
O978        O  0.56495384  0.05185517  0.14848459    -0.84400
O979        O  0.53786362  0.09344466  0.09086487    -0.79200
O980        O  0.59203948  0.14708710  0.21109964    -0.81000
O981        O  0.98535576  0.15444128  0.13914038    -0.83800
C982        C  0.56731794  0.09926019  0.08171009     0.97000
C983        C  0.59280702  0.05519010  0.16410731     1.04400
O984        O  0.54184702  0.11895601  0.16329343    -1.12700
O985        O  0.98291641  0.11381436  0.20998457    -0.75200
O986        O  0.00594063  0.06655410  0.19287073    -0.78700
O987        O  0.58969782  0.10706323  0.10463857    -0.79400
C988        C  0.98615188  0.08277447  0.21313316     0.95900
O989        O  0.97742170  0.10196847  0.13007629    -0.77300
O990        O  0.54123585  0.15067059  0.23475749    -0.82500
C991        C  0.56555398  0.19435405  0.14590760     0.98500
C992        C  0.57230547  0.15401419  0.23776737     1.04400
O993        O  0.58155691  0.17015485  0.13394684    -0.78200
C994        C  0.97136240  0.13140746  0.12179572     1.02700
Fe995      Fe  0.83015074  0.20804102  0.88742493     1.65800
Fe996      Fe  0.90185138  0.22530038  0.93099170     1.73200
Fe997      Fe  0.88156529  0.14759491  0.91283673     1.54400
O998        O  0.83423852  0.13023493  0.91031209    -0.81900
O999        O  0.93919007  0.20528754  0.89648462    -0.80200
O1000       O  0.80203629  0.17344901  0.91460256    -0.84400
O1001       O  0.83838908  0.17724364  0.84282178    -0.79200
O1002       O  0.88135927  0.14903568  0.97046094    -0.81000
O1003       O  0.89569757  0.25959704  0.88989351    -0.83800
C1004       C  0.86229122  0.15916461  0.83226899     0.97000
C1005       C  0.80592702  0.14277268  0.91304921     1.04400
O1006       O  0.87038343  0.19400255  0.91118459    -1.12700
O1007       O  0.86529518  0.24832087  0.96354024    -0.75200
O1008       O  0.81981345  0.24052524  0.92974265    -0.78700
O1009       O  0.88318487  0.14679293  0.85475711    -0.79400
C1010       C  0.83454601  0.25304532  0.95746293     0.95900
O1011       O  0.85291884  0.24382473  0.85652707    -0.77300
O1012       O  0.91184778  0.19428727  0.97569241    -0.82500
C1013       C  0.94598046  0.17508494  0.89549931     0.98500
C1014       C  0.90010424  0.16792523  0.98917783     1.04400
O1015       O  0.93066550  0.15604169  0.91642577    -0.78200
C1016       C  0.87729145  0.26243127  0.86177088     1.02700
Fe1017     Fe  0.57430322  0.02708466  0.86782197     1.65800
Fe1018     Fe  0.64984091  0.02063992  0.83050828     1.73200
Fe1019     Fe  0.61776838  0.09482379  0.85289853     1.54400
O1020       O  0.57467102  0.10322665  0.82537371    -0.81900
O1021       O  0.68701527  0.04945540  0.85561875    -0.80200
O1022       O  0.54461490  0.06739440  0.85605835    -0.84400
O1023       O  0.58296695  0.04546315  0.91886340    -0.79200
O1024       O  0.64306128  0.09832538  0.80314867    -0.81000
O1025       O  0.65033205  0.49219682  0.87804475    -0.83800
C1026       C  0.58727219  0.07498388  0.92775137     0.97000
C1027       C  0.54749045  0.09442616  0.83909971     1.04400
O1028       O  0.61405275  0.04763047  0.84959907    -1.12700
O1029       O  0.61592533  0.48925170  0.80287238    -0.75200
O1030       O  0.56539712  0.50803411  0.81677235    -0.78700
O1031       O  0.59416080  0.09696293  0.90414370    -0.79400
C1032       C  0.58461475  0.49016253  0.79762656     0.95900
O1033       O  0.59699352  0.48415493  0.88570668    -0.77300
O1034       O  0.65317279  0.04790904  0.78257233    -0.82500
C1035       C  0.68637054  0.07505066  0.87608277     0.98500
C1036       C  0.65387101  0.07867165  0.77857846     1.04400
O1037       O  0.66026476  0.09109562  0.88126982    -0.78200
C1038       C  0.62669843  0.47799900  0.89438361     1.02700
Fe1039     Fe  0.78480518  0.17285014  0.62532110     1.65800
Fe1040     Fe  0.76797373  0.10059757  0.58519017     1.73200
Fe1041     Fe  0.84638703  0.12402524  0.59678347     1.54400
O1042       O  0.86059996  0.17194140  0.59388427    -0.81900
O1043       O  0.79067058  0.06605111  0.61980485    -0.80200
O1044       O  0.81441660  0.20030144  0.59102730    -0.84400
O1045       O  0.82107968  0.17005888  0.66578303    -0.79200
O1046       O  0.84189210  0.12101851  0.53995117    -0.81000
O1047       O  0.73493368  0.10815712  0.62796108    -0.83800
C1048       C  0.84225772  0.14874907  0.67562256     0.97000
C1049       C  0.84560453  0.19870230  0.58980461     1.04400
O1050       O  0.79936252  0.13303271  0.60182689    -1.12700
O1051       O  0.74291598  0.13457446  0.55246424    -0.75200
O1052       O  0.74711336  0.17927669  0.58764770    -0.78700
O1053       O  0.85168163  0.12584840  0.65411352    -0.79400
C1054       C  0.73518225  0.16410285  0.55992196     0.95900
O1055       O  0.75411508  0.14895791  0.66179494    -0.77300
O1056       O  0.79753913  0.08878712  0.53940754    -0.82500
C1057       C  0.82134614  0.05975586  0.61998876     0.98500
C1058       C  0.82344307  0.10022599  0.52405009     1.04400
O1059       O  0.84039181  0.07480520  0.59852803    -0.78200
C1060       C  0.73455398  0.12533195  0.65728554     1.02700
Fe1061     Fe  0.90821412  0.45987693  0.37924282     1.65800
Fe1062     Fe  0.83589511  0.47630910  0.33607251     1.73200
Fe1063     Fe  0.85759995  0.39879644  0.35349832     1.54400
O1064       O  0.90495058  0.38186746  0.35479290    -0.81900
O1065       O  0.79905319  0.45577626  0.37038771    -0.80200
O1066       O  0.93730984  0.42481588  0.35375044    -0.84400
O1067       O  0.89905664  0.43039301  0.42450023    -0.79200
O1068       O  0.85755647  0.40015681  0.29613080    -0.81000
O1069       O  0.84094112  0.01093408  0.37722187    -0.83800
C1070       C  0.87576282  0.41140792  0.43417265     0.97000
C1071       C  0.93319490  0.39423933  0.35305946     1.04400
O1072       O  0.86808842  0.44535767  0.35549019    -1.12700
O1073       O  0.87204376  0.99996311  0.30404004    -0.75200
O1074       O  0.91867614  0.99100540  0.33597319    -0.78700
O1075       O  0.85629326  0.39785986  0.41114721    -0.79400
C1076       C  0.90297703  0.00412135  0.30925604     0.95900
O1077       O  0.88547504  0.99696832  0.40868496    -0.77300
O1078       O  0.82653580  0.44522478  0.29111038    -0.82500
C1079       C  0.79256485  0.42557435  0.37179772     0.98500
C1080       C  0.83831768  0.41869715  0.27764460     1.04400
O1081       O  0.80815111  0.40610152  0.35133551    -0.78200
C1082       C  0.86057902  0.01514745  0.40401749     1.02700
Fe1083     Fe  0.71747367  0.33267485  0.12503567     1.65800
Fe1084     Fe  0.72314989  0.40349152  0.08001568     1.73200
Fe1085     Fe  0.64768861  0.37178269  0.10100891     1.54400
O1086       O  0.64099076  0.32414729  0.08385169    -0.81900
O1087       O  0.69489907  0.44161187  0.10400273    -0.80200
O1088       O  0.67780163  0.30161521  0.12042371    -0.84400
O1089       O  0.69846558  0.34831531  0.17423381    -0.79200
O1090       O  0.64526792  0.38858541  0.04587636    -0.81000
O1091       O  0.75167925  0.40690261  0.12721532    -0.83800
C1092       C  0.66829730  0.35371357  0.18172989     0.97000
C1093       C  0.65000151  0.30094868  0.10471957     1.04400
O1094       O  0.69579006  0.36928806  0.10081528    -1.12700
O1095       O  0.75433517  0.36721463  0.05499347    -0.75200
O1096       O  0.73659720  0.31841613  0.07529149    -0.78700
O1097       O  0.64620595  0.35757747  0.15685150    -0.79400
C1098       C  0.75427121  0.33578176  0.05382552     0.95900
O1099       O  0.76160733  0.35529881  0.13763841    -0.77300
O1100       O  0.69597421  0.40574847  0.03152206    -0.82500
C1101       C  0.66669024  0.44240864  0.11995201     0.98500
C1102       C  0.66579992  0.40159682  0.02332009     1.04400
O1103       O  0.64773286  0.41817793  0.12017396    -0.78200
C1104       C  0.76721810  0.38494584  0.14438119     1.02700
C1105       C  0.82681287  0.40883329  0.24004318    -0.00400
C1106       C  0.81757674  0.43338396  0.21493406    -0.12200
C1107       C  0.79995485  0.42624364  0.18252775     0.01900
C1108       C  0.79112797  0.39365028  0.17436247    -0.00500
C1109       C  0.80275134  0.36883705  0.19807171    -0.12200
C1110       C  0.82018154  0.37607306  0.23066390     0.01800
H1111       H  0.82291232  0.45861518  0.22149192     0.14700
H1112       H  0.79656870  0.34365196  0.19241829     0.14700
C1113       C  0.82821640  0.34955601  0.25541905     0.36400
C1114       C  0.79031821  0.45324188  0.15923728     0.36300
N1115       N  0.83450512  0.32829316  0.27529008    -0.44000
N1116       N  0.78255185  0.47499272  0.14076384    -0.44000
C1117       C  0.83434578  0.08531673  0.48869016    -0.00400
C1118       C  0.86680851  0.07372739  0.48640050    -0.12200
C1119       C  0.87646377  0.05197954  0.45834379     0.01900
C1120       C  0.85329339  0.04153479  0.43147459    -0.00500
C1121       C  0.82155106  0.05558697  0.43207740    -0.12200
C1122       C  0.81195089  0.07714140  0.46038615     0.01800
H1123       H  0.88420676  0.07999413  0.50806312     0.14700
H1124       H  0.80358463  0.04873527  0.41129253     0.14700
C1125       C  0.77892853  0.09036589  0.45998278     0.36400
C1126       C  0.91008980  0.04037386  0.45874651     0.36300
N1127       N  0.75254011  0.10112337  0.45942450    -0.44000
N1128       N  0.93706051  0.03114676  0.45928324    -0.44000
C1129       C  0.63418908  0.45416597  0.92493386    -0.00400
C1130       C  0.66505065  0.43839101  0.92553762    -0.12200
C1131       C  0.67487132  0.41909258  0.95588905     0.01900
C1132       C  0.65385576  0.41533806  0.98711102    -0.00500
C1133       C  0.62229370  0.42956925  0.98561832    -0.12200
C1134       C  0.61237489  0.44877592  0.95520219     0.01800
H1135       H  0.68195081  0.44161965  0.90243739     0.14700
H1136       H  0.60590006  0.42733274  0.00933991     0.14700
C1137       C  0.58049831  0.46444463  0.95727989     0.36400
C1138       C  0.70676852  0.40342493  0.95422582     0.36300
N1139       N  0.55496125  0.47701792  0.95897581    -0.44000
N1140       N  0.73226820  0.39074586  0.95292312    -0.44000
C1141       C  0.67032747  0.09253157  0.74544451    -0.00400
C1142       C  0.68810069  0.12157584  0.74982009    -0.12200
C1143       C  0.70860980  0.13332950  0.72158360     0.01900
C1144       C  0.71097014  0.11628860  0.68736519    -0.00500
C1145       C  0.69147936  0.08828015  0.68238077    -0.12200
C1146       C  0.67169323  0.07613914  0.71101995     0.01800
H1147       H  0.68746724  0.13428350  0.77628156     0.14700
H1148       H  0.69246287  0.07492209  0.65637813     0.14700
C1149       C  0.65350033  0.04655715  0.70436450     0.36400
C1150       C  0.72787250  0.16198128  0.72965385     0.36300
N1151       N  0.63911033  0.02274532  0.69903899    -0.44000
N1152       N  0.74341836  0.18477486  0.73645729    -0.44000
C1153       C  0.81432470  0.27429747  0.98282058    -0.00400
C1154       C  0.82913445  0.29953720  0.00340427    -0.12200
C1155       C  0.81003685  0.32096620  0.02555161     0.01900
C1156       C  0.77544250  0.31760051  0.02706247    -0.00500
C1157       C  0.76082789  0.29230646  0.00698342    -0.12200
C1158       C  0.77960045  0.27074114  0.98540620     0.01800
H1159       H  0.85562822  0.30256416  0.00224735     0.14700
H1160       H  0.73439351  0.28881405  0.00898930     0.14700
C1161       C  0.76224487  0.24431730  0.96770447     0.36400
C1162       C  0.82653695  0.34478548  0.04831197     0.36300
N1163       N  0.74810409  0.22324352  0.95366536    -0.44000
N1164       N  0.83964326  0.36372263  0.06689810    -0.44000
C1165       C  0.86561431  0.15483622  0.79158868    -0.00400
C1166       C  0.86362802  0.18315727  0.76993005    -0.12200
C1167       C  0.85901939  0.18152605  0.73157806     0.01900
C1168       C  0.85531177  0.15094905  0.71404786    -0.00500
C1169       C  0.86059879  0.12246856  0.73506288    -0.12200
C1170       C  0.86605968  0.12424914  0.77368876     0.01800
H1171       H  0.86448879  0.20685054  0.78334594     0.14700
H1172       H  0.85863249  0.09882392  0.72177594     0.14700
C1173       C  0.87032965  0.09452693  0.79444219     0.36400
C1174       C  0.85789837  0.21172508  0.71097772     0.36300
N1175       N  0.87419229  0.07060107  0.81083893    -0.44000
N1176       N  0.85719363  0.23590553  0.69449839    -0.44000
C1177       C  0.77646080  0.12128074  0.91148055    -0.00400
C1178       C  0.74598873  0.13455601  0.92164251    -0.12200
C1179       C  0.71657984  0.11880271  0.91317426     0.01900
C1180       C  0.71697790  0.08881265  0.89300139    -0.00500
C1181       C  0.74760733  0.07395054  0.88607440    -0.12200
C1182       C  0.77716285  0.08953754  0.89561048     0.01800
H1183       H  0.74498600  0.15816239  0.93513601     0.14700
H1184       H  0.74861144  0.05063121  0.87191054     0.14700
C1185       C  0.80759216  0.07257651  0.88752656     0.36400
C1186       C  0.68666624  0.13537555  0.92453973     0.36300
N1187       N  0.83187257  0.05863985  0.88148150    -0.44000
N1188       N  0.66289059  0.14890682  0.93366122    -0.44000
C1189       C  0.97071832  0.15982160  0.87039420    -0.00400
C1190       C  0.96321624  0.12834952  0.85736643    -0.12200
C1191       C  0.48704407  0.10703955  0.84413083     0.01900
C1192       C  0.51970460  0.11798704  0.84095263    -0.00500
C1193       C  0.52648099  0.15107103  0.84865328    -0.12200
C1194       C  0.00256093  0.17212459  0.86419791     0.01800
H1195       H  0.93867465  0.11864963  0.86122061     0.14700
H1196       H  0.55155353  0.15985869  0.84642925     0.14700
C1197       C  0.01158159  0.20427194  0.87668855     0.36400
C1198       C  0.47803411  0.07379259  0.83589087     0.36300
N1199       N  0.01893167  0.22998763  0.88683545    -0.44000
N1200       N  0.47079763  0.04709300  0.82975404    -0.44000
C1201       C  0.92278213  0.02471930  0.28358849    -0.00400
C1202       C  0.95529871  0.01487747  0.27605972    -0.12200
C1203       C  0.97654264  0.03405711  0.25480994     0.01900
C1204       C  0.96538838  0.06398809  0.23973941    -0.00500
C1205       C  0.93303946  0.07431195  0.24786542    -0.12200
C1206       C  0.91181028  0.05506631  0.26969110     0.01800
H1207       H  0.96439053  0.99201425  0.28722846     0.14700
H1208       H  0.92413730  0.09723974  0.23675274     0.14700
C1209       C  0.87962258  0.06777811  0.27894434     0.36400
C1210       C  0.51018919  0.02317248  0.25074948     0.36300
N1211       N  0.85393136  0.07818608  0.28657003    -0.44000
N1212       N  0.53706477  0.01414430  0.24717602    -0.44000
C1213       C  0.94808259  0.13909879  0.09075424    -0.00400
C1214       C  0.93734177  0.17146542  0.08603637    -0.12200
C1215       C  0.91972498  0.18105247  0.05438432     0.01900
C1216       C  0.91177795  0.15793817  0.02664597    -0.00500
C1217       C  0.92035912  0.12522423  0.03247737    -0.12200
C1218       C  0.93875574  0.11569587  0.06362199     0.01800
H1219       H  0.94382104  0.18978497  0.10646201     0.14700
H1220       H  0.91490295  0.10734230  0.01114959     0.14700
C1221       C  0.94996898  0.08227465  0.06483736     0.36400
C1222       C  0.91090835  0.21503016  0.05066108     0.36300
N1223       N  0.95913005  0.05553920  0.06538558    -0.44000
N1224       N  0.90402797  0.24228683  0.04764067    -0.44000
C1225       C  0.62661511  0.27442403  0.11540155    -0.00400
C1226       C  0.60050117  0.26555309  0.09181869    -0.12200
C1227       C  0.57808670  0.24098075  0.10220840     0.01900
C1228       C  0.58038220  0.22624461  0.13750679    -0.00500
C1229       C  0.60525642  0.23618397  0.16164003    -0.12200
C1230       C  0.62858651  0.25926202  0.15092362     0.01800
H1231       H  0.59826738  0.27696028  0.06479011     0.14700
H1232       H  0.60781579  0.22412575  0.18831633     0.14700
C1233       C  0.65424678  0.26635642  0.17747886     0.36400
C1234       C  0.55364146  0.23034367  0.07591402     0.36300
N1235       N  0.67472577  0.27161257  0.19893769    -0.44000
N1236       N  0.53399740  0.22164092  0.05494821    -0.44000
C1237       C  0.61720606  0.02857378  0.16003211    -0.00400
C1238       C  0.61060456  0.99847157  0.17623903    -0.12200
C1239       C  0.62892943  0.47072452  0.16642916     0.01900
C1240       C  0.65359247  0.47249618  0.13824276    -0.00500
C1241       C  0.66197300  0.50324121  0.12428498    -0.12200
C1242       C  0.64414781  0.03126731  0.13508773     0.01800
H1243       H  0.59032299  0.99636049  0.19578930     0.14700
H1244       H  0.68088931  0.50520620  0.10305385     0.14700
C1245       C  0.65210421  0.06177781  0.11740354     0.36400
C1246       C  0.62110811  0.44077130  0.18545495     0.36300
N1247       N  0.65881316  0.08598831  0.10286010    -0.44000
N1248       N  0.61441708  0.41709924  0.20110186    -0.38400
C1249       C  0.57604520  0.09449574  0.04315984    -0.00400
C1250       C  0.57035557  0.11978594  0.01799352    -0.12200
C1251       C  0.57407085  0.11439145  0.97989953     0.01900
C1252       C  0.58434443  0.08335459  0.96719225    -0.00500
C1253       C  0.59078648  0.05848687  0.99292481    -0.12200
C1254       C  0.58595804  0.06358716  0.03061574     0.01800
H1255       H  0.56162910  0.14324101  0.02804516     0.14700
H1256       H  0.59863098  0.03453682  0.98352789     0.14700
C1257       C  0.58880545  0.03602031  0.05532486     0.36400
C1258       C  0.56490292  0.14025861  0.95480657     0.36300
N1259       N  0.59051944  0.01342872  0.07441018    -0.44000
N1260       N  0.55730190  0.16108166  0.93493665    -0.44000
C1261       C  0.67198727  0.22224837  0.48925198    -0.00400
C1262       C  0.66893130  0.18820346  0.48877994    -0.12200
C1263       C  0.68889596  0.16845980  0.51151165     0.01900
C1264       C  0.71224973  0.18294020  0.53553803    -0.00500
C1265       C  0.71395052  0.21721792  0.53684151    -0.12200
C1266       C  0.69437168  0.23672317  0.51401149     0.01800
H1267       H  0.65185542  0.17696911  0.46957700     0.14700
H1268       H  0.73134755  0.22908311  0.55515606     0.14700
C1269       C  0.69791942  0.27171056  0.51624196     0.36400
C1270       C  0.68463775  0.13363387  0.50960024     0.36300
N1271       N  0.70072526  0.29971640  0.51793228    -0.44000
N1272       N  0.68102410  0.10572699  0.50789554    -0.44000
C1273       C  0.58543519  0.16869666  0.27289545    -0.00400
C1274       C  0.56430133  0.17168453  0.30385596    -0.12200
C1275       C  0.57296876  0.19030286  0.33505264     0.01900
C1276       C  0.60351676  0.20683239  0.33595458    -0.00500
C1277       C  0.62562131  0.20194626  0.30625454    -0.12200
C1278       C  0.61702484  0.18322468  0.27507278     0.01800
H1279       H  0.54031641  0.16020800  0.30335411     0.14700
H1280       H  0.64926994  0.21408888  0.30647229     0.14700
C1281       C  0.64072988  0.18103426  0.24512605     0.36400
C1282       C  0.54973410  0.19201578  0.36552348     0.36300
N1283       N  0.65976728  0.17929951  0.22116383    -0.44000
N1284       N  0.53106861  0.19329534  0.38988985    -0.44000
C1285       C  0.96232728  0.37230084  0.35298100    -0.00400
C1286       C  0.49221207  0.38463575  0.34007394    -0.12200
C1287       C  0.52162198  0.36808359  0.34699268     0.01900
C1288       C  0.52145232  0.33911930  0.36873376    -0.00500
C1289       C  0.99128320  0.32505494  0.37822927    -0.12200
C1290       C  0.96170484  0.34089674  0.36948479     0.01800
H1291       H  0.49293735  0.40799515  0.32602086     0.14700
H1292       H  0.99054661  0.30237472  0.39363359     0.14700
C1293       C  0.93141308  0.32475962  0.37938167     0.36400
C1294       C  0.55144484  0.38231031  0.33221356     0.36300
N1295       N  0.90722055  0.31143117  0.38676896    -0.44000
N1296       N  0.57530411  0.39369465  0.32038482    -0.44000
C1297       C  0.76738937  0.41102638  0.39675517    -0.00400
C1298       C  0.77473013  0.38010505  0.41168695    -0.12200
C1299       C  0.75008512  0.36011180  0.42611660     0.01900
C1300       C  0.71717576  0.37083350  0.42577940    -0.00500
C1301       C  0.71038037  0.40338967  0.41566573    -0.12200
C1302       C  0.73526512  0.42355614  0.40111079     0.01800
H1303       H  0.79953573  0.37041315  0.40963350     0.14700
H1304       H  0.68508984  0.41196979  0.41535874     0.14700
C1305       C  0.72644028  0.45520310  0.38682223     0.36400
C1306       C  0.75890017  0.32800355  0.43923807     0.36300
N1307       N  0.71939862  0.48058337  0.37529224    -0.44000
N1308       N  0.76603154  0.30236230  0.44993615    -0.44000
C1309       C  0.65033660  0.34467352  0.29754086    -0.00400
C1310       C  0.62607763  0.33444174  0.27261225    -0.12200
C1311       C  0.62996719  0.33943034  0.23448206     0.01900
C1312       C  0.65901813  0.35423755  0.22119144    -0.00500
C1313       C  0.68200805  0.36657753  0.24659011    -0.12200
C1314       C  0.67783705  0.36194152  0.28464022     0.01800
H1315       H  0.60478164  0.32131434  0.28287655     0.14700
H1316       H  0.70412051  0.37847997  0.23656095     0.14700
C1317       C  0.70351993  0.37250685  0.30940357     0.36400
C1318       C  0.60499036  0.32705751  0.20980487     0.36300
N1319       N  0.72448223  0.38085348  0.32881879    -0.44000
N1320       N  0.58485391  0.31719323  0.19014668    -0.44000
C1321       C  0.52449959  0.43042828  0.72664454    -0.00400
C1322       C  0.52610206  0.46451575  0.72183917    -0.12200
C1323       C  0.54753266  0.48385959  0.74262380     0.01900
C1324       C  0.56857407  0.46952333  0.76906085    -0.00500
C1325       C  0.56846306  0.43544965  0.77294083    -0.12200
C1326       C  0.54669285  0.41587165  0.75213612     0.01800
H1327       H  0.50984079  0.47657862  0.70233547     0.14700
H1328       H  0.58418477  0.42424797  0.79363968     0.14700
C1329       C  0.04882175  0.38108022  0.75614741     0.36400
C1330       C  0.54689000  0.51871222  0.73689932     0.36300
N1331       N  0.05046126  0.35313068  0.75991372    -0.44000
N1332       N  0.54631584  0.54659890  0.73225723    -0.44000
C1333       C  0.87735215  0.40245498  0.55214523    -0.00400
C1334       C  0.87220240  0.37427360  0.53064202    -0.12200
C1335       C  0.86870131  0.37645686  0.49185452     0.01900
C1336       C  0.87106561  0.40709980  0.47448468    -0.00500
C1337       C  0.87237262  0.43528953  0.49646697    -0.12200
C1338       C  0.87502753  0.43328862  0.53495397     0.01800
H1339       H  0.87313965  0.35050571  0.54369465     0.14700
H1340       H  0.87261415  0.45906556  0.48331220     0.14700
C1341       C  0.87628879  0.46334197  0.55594035     0.36400
C1342       C  0.86478467  0.34699592  0.47048242     0.36300
N1343       N  0.87724964  0.48745671  0.57260841    -0.44000
N1344       N  0.86123130  0.32333213  0.45348321    -0.44000
C1345       C  0.86792450  0.47923539  0.67487723    -0.00400
C1346       C  0.88517623  0.50823429  0.66940890    -0.12200
C1347       C  0.87001080  0.03526412  0.65355919     0.01900
C1348       C  0.83615408  0.03410919  0.64377019    -0.00500
C1349       C  0.81763681  0.00704316  0.65476295    -0.12200
C1350       C  0.83313264  0.47963238  0.67034126     0.01800
H1351       H  0.91154745  0.50898571  0.67413289     0.14700
H1352       H  0.79143835  0.00637266  0.64900890     0.14700
C1353       C  0.81288972  0.45195657  0.67962128     0.36400
C1354       C  0.89088200  0.06282526  0.64557496     0.36300
N1355       N  0.79658867  0.42985446  0.68713624    -0.44000
N1356       N  0.90821379  0.08438103  0.63900898    -0.44000
C1357       C  0.89648472  0.28422928  0.61964279    -0.00400
C1358       C  0.91517448  0.25721979  0.60817959    -0.12200
C1359       C  0.89969785  0.22978694  0.59295664     0.01900
C1360       C  0.86488055  0.22934052  0.58936666    -0.00500
C1361       C  0.84741052  0.25842244  0.59471712    -0.12200
C1362       C  0.86254246  0.28550407  0.61022327     0.01800
H1363       H  0.94145878  0.25656697  0.61345108     0.14700
H1364       H  0.82097120  0.25916569  0.59040319     0.14700
C1365       C  0.84151481  0.31312969  0.61849382     0.36400
C1366       C  0.92001117  0.20213389  0.58299481     0.36300
N1367       N  0.82405070  0.33471242  0.62530863    -0.44000
N1368       N  0.93639339  0.18007691  0.57487158    -0.44000
C1369       C  0.56294971  0.34091260  0.51756800    -0.00400
C1370       C  0.54082655  0.36676121  0.51154775    -0.12200
C1371       C  0.51926384  0.37751265  0.53950685     0.01900
C1372       C  0.52028146  0.36297916  0.57521031    -0.00500
C1373       C  0.54286747  0.33725927  0.58117916    -0.12200
C1374       C  0.56369634  0.32593436  0.55274935     0.01800
H1375       H  0.53932667  0.37774636  0.48418614     0.14700
H1376       H  0.54407867  0.32546881  0.60808315     0.14700
C1377       C  0.58577527  0.29913398  0.56053504     0.36400
C1378       C  0.49550990  0.40237264  0.52977657     0.36300
N1379       N  0.60341693  0.27760980  0.56673246    -0.44000
N1380       N  0.47635580  0.42209521  0.52176351    -0.44000
C1381       C  0.89872436  0.33153080  0.77459996    -0.00400
C1382       C  0.92254042  0.32466357  0.80157455    -0.12200
C1383       C  0.91604663  0.30299732  0.83066873     0.01900
C1384       C  0.88474831  0.28796529  0.83356510    -0.00500
C1385       C  0.86050117  0.29596359  0.80717249    -0.12200
C1386       C  0.86734374  0.31712916  0.77765627     0.01800
H1387       H  0.94693696  0.33495979  0.79874365     0.14700
H1388       H  0.83656246  0.28460263  0.80855693     0.14700
C1389       C  0.84288960  0.32073224  0.74884215     0.36400
C1390       C  0.94306256  0.29498476  0.85505062     0.36300
N1391       N  0.82341942  0.32320664  0.72559342    -0.44000
N1392       N  0.96491820  0.28854143  0.87427709    -0.44000
Fe1393     Fe  0.94828206  0.92175357  0.63987299     1.65800
Fe1394     Fe  0.96511888  0.84912149  0.67891910     1.73200
Fe1395     Fe  0.88641200  0.87367551  0.66846910     1.54400
O1396       O  0.87263606  0.92175000  0.67246020    -0.81900
O1397       O  0.94185688  0.81535767  0.64402508    -0.80200
O1398       O  0.91881877  0.94987929  0.67433763    -0.84400
O1399       O  0.91175014  0.92006545  0.60018572    -0.79200
O1400       O  0.89090442  0.86927463  0.72513784    -0.81000
O1401       O  0.49794924  0.85584608  0.63561799    -0.83800
C1402       C  0.89013115  0.89949767  0.59030876     0.97000
C1403       C  0.88756361  0.94851957  0.67560610     1.04400
O1404       O  0.93357739  0.88214048  0.66327822    -1.12700
O1405       O  0.99120993  0.88257481  0.71180214    -0.75200
O1406       O  0.48701265  0.92722278  0.67665452    -0.78700
O1407       O  0.88059145  0.87651109  0.61136178    -0.79400
C1408       C  0.49973917  0.91190515  0.70383856     0.95900
O1409       O  0.47830700  0.89686740  0.60241896    -0.77300
O1410       O  0.93566508  0.83714517  0.72450151    -0.82500
C1411       C  0.91116212  0.80949095  0.64367249     0.98500
C1412       C  0.90931208  0.84771131  0.73994810     1.04400
O1413       O  0.89206542  0.82450648  0.66530582    -0.78200
C1414       C  0.49752659  0.87264478  0.60610040     1.02700
Fe1415     Fe  0.66368511  0.78168246  0.39090560     1.65800
Fe1416     Fe  0.58920304  0.77241335  0.43109379     1.73200
Fe1417     Fe  0.61923901  0.84791584  0.41253604     1.54400
O1418       O  0.66241759  0.85509049  0.44040606    -0.81900
O1419       O  0.55174478  0.80049102  0.40607609    -0.80200
O1420       O  0.69281409  0.82157117  0.40595380    -0.84400
O1421       O  0.65298235  0.80310487  0.34136989    -0.79200
O1422       O  0.59308841  0.84917782  0.46205958    -0.81000
O1423       O  0.58882570  0.74434295  0.38376763    -0.83800
C1424       C  0.64845790  0.83319795  0.33567951     0.97000
C1425       C  0.68965833  0.84725953  0.42566793     1.04400
O1426       O  0.62403303  0.80058998  0.41243944    -1.12700
O1427       O  0.62403362  0.74181115  0.45754530    -0.75200
O1428       O  0.67412654  0.75931021  0.44003891    -0.78700
O1429       O  0.64288026  0.85356124  0.36159025    -0.79400
C1430       C  0.65549200  0.74223975  0.46066482     0.95900
O1431       O  0.64170963  0.73947287  0.37025481    -0.77300
O1432       O  0.58438648  0.79807333  0.48013732    -0.82500
C1433       C  0.55184836  0.82664821  0.38673895     0.98500
C1434       C  0.58196058  0.82858391  0.48517101     1.04400
O1435       O  0.57690824  0.84449261  0.38404403    -0.78200
C1436       C  0.61192393  0.73123671  0.36536952     1.02700
Fe1437     Fe  0.52239318  0.58017571  0.14215490     1.65800
Fe1438     Fe  0.51354060  0.65109881  0.18699117     1.73200
Fe1439     Fe  0.58885963  0.62602089  0.15816441     1.54400
O1440       O  0.60110969  0.58143044  0.17978287    -0.81900
O1441       O  0.54109062  0.69153253  0.16795708    -0.80200
O1442       O  0.56495833  0.55181893  0.14849772    -0.84400
O1443       O  0.53788988  0.59347439  0.09092417    -0.79200
O1444       O  0.59219259  0.64698232  0.21116095    -0.81000
O1445       O  0.98546288  0.65451680  0.13927761    -0.83800
C1446       C  0.56734141  0.59929139  0.08175448     0.97000
C1447       C  0.59282288  0.55512211  0.16410478     1.04400
O1448       O  0.54193530  0.61894701  0.16336317    -1.12700
O1449       O  0.98301656  0.61382959  0.21011543    -0.75200
O1450       O  0.00599364  0.56655653  0.19296525    -0.78700
O1451       O  0.58974250  0.60704464  0.10467769    -0.79400
C1452       C  0.98623177  0.58278545  0.21325399     0.95900
O1453       O  0.97744108  0.60205804  0.13024343    -0.77300
O1454       O  0.54139530  0.65063804  0.23483381    -0.82500
C1455       C  0.56572665  0.69432780  0.14600459     0.98500
C1456       C  0.57247273  0.65393762  0.23782997     1.04400
O1457       O  0.58172486  0.67012183  0.13405403    -0.78200
C1458       C  0.97144270  0.63150206  0.12192484     1.02700
Fe1459     Fe  0.83006132  0.70803143  0.88743212     1.65800
Fe1460     Fe  0.90177506  0.72529190  0.93097447     1.73200
Fe1461     Fe  0.88145467  0.64756622  0.91294345     1.54400
O1462       O  0.83411323  0.63022215  0.91052870    -0.81900
O1463       O  0.93908049  0.70524255  0.89645933    -0.80200
O1464       O  0.80192803  0.67346829  0.91462744    -0.84400
O1465       O  0.83829417  0.67721741  0.84283802    -0.79200
O1466       O  0.88134560  0.64905721  0.97058201    -0.81000
O1467       O  0.89561886  0.75955912  0.88984616    -0.83800
C1468       C  0.86216023  0.65907260  0.83233021     0.97000
C1469       C  0.80580739  0.64278617  0.91319842     1.04400
O1470       O  0.87028700  0.69398300  0.91122275    -1.12700
O1471       O  0.86523364  0.74834582  0.96350924    -0.75200
O1472       O  0.81973014  0.74053934  0.92973917    -0.78700
O1473       O  0.88301255  0.64668045  0.85485365    -0.79400
C1474       C  0.83448313  0.75307370  0.95744046     0.95900
O1475       O  0.85283326  0.74379524  0.85649485    -0.77300
O1476       O  0.91181634  0.69432541  0.97571285    -0.82500
C1477       C  0.94585676  0.67503704  0.89547761     0.98500
C1478       C  0.90011866  0.66796273  0.98924635     1.04400
O1479       O  0.93056045  0.65600203  0.91643186    -0.78200
C1480       C  0.87721909  0.76238808  0.86171926     1.02700
Fe1481     Fe  0.57417704  0.52720849  0.86789267     1.65800
Fe1482     Fe  0.64974155  0.52074503  0.83062642     1.73200
Fe1483     Fe  0.61761133  0.59497012  0.85283453     1.54400
O1484       O  0.57449342  0.60329224  0.82533017    -0.81900
O1485       O  0.68687276  0.54954711  0.85579865    -0.80200
O1486       O  0.54445294  0.56747298  0.85604741    -0.84400
O1487       O  0.58281881  0.54568026  0.91888408    -0.79200
O1488       O  0.64284335  0.59842284  0.80304838    -0.81000
O1489       O  0.65045884  0.99208998  0.87791927    -0.83800
C1490       C  0.58717839  0.57519822  0.92774846     0.97000
C1491       C  0.54731970  0.59449158  0.83906379     1.04400
O1492       O  0.61393093  0.54775485  0.84964887    -1.12700
O1493       O  0.61599272  0.98913940  0.80279425    -0.75200
O1494       O  0.56549310  0.00800128  0.81667126    -0.78700
O1495       O  0.59406002  0.59716506  0.90412048    -0.79400
C1496       C  0.58468231  0.99008637  0.79754462     0.95900
O1497       O  0.59711862  0.98399392  0.88549706    -0.77300
O1498       O  0.65315133  0.54798410  0.78267052    -0.82500
C1499       C  0.68622722  0.57521504  0.87613900     0.98500
C1500       C  0.65374653  0.57873767  0.77856561     1.04400
O1501       O  0.66015254  0.59135679  0.88113905    -0.78200
C1502       C  0.62681842  0.97785890  0.89421073     1.02700
Fe1503     Fe  0.78479837  0.67278031  0.62537677     1.65800
Fe1504     Fe  0.76794341  0.60057336  0.58517937     1.73200
Fe1505     Fe  0.84636188  0.62395452  0.59679389     1.54400
O1506       O  0.86057213  0.67187019  0.59391787    -0.81900
O1507       O  0.79061529  0.56601674  0.61980265    -0.80200
O1508       O  0.81438418  0.70022759  0.59106238    -0.84400
O1509       O  0.82110782  0.66998823  0.66581859    -0.79200
O1510       O  0.84188090  0.62096203  0.53995659    -0.81000
O1511       O  0.73488241  0.60815502  0.62793472    -0.83800
C1512       C  0.84225362  0.64864403  0.67565393     0.97000
C1513       C  0.84557160  0.69862854  0.58983296     1.04400
O1514       O  0.79934373  0.63298050  0.60183934    -1.12700
O1515       O  0.74292657  0.63458087  0.55245210    -0.75200
O1516       O  0.74706704  0.67922954  0.58773122    -0.78700
O1517       O  0.85164949  0.62574266  0.65413146    -0.79400
C1518       C  0.73516126  0.66409255  0.55996127     0.95900
O1519       O  0.75414351  0.64885803  0.66186439    -0.77300
O1520       O  0.79752324  0.58873910  0.53940791    -0.82500
C1521       C  0.82129029  0.55971484  0.61998357     0.98500
C1522       C  0.82344129  0.60015834  0.52405944     1.04400
O1523       O  0.84033252  0.57474314  0.59850252    -0.78200
C1524       C  0.73453194  0.62528130  0.65729803     1.02700
Fe1525     Fe  0.90815266  0.95998411  0.37921487     1.65800
Fe1526     Fe  0.83582083  0.97640696  0.33605044     1.73200
Fe1527     Fe  0.85755581  0.89889931  0.35343932     1.54400
O1528       O  0.90491983  0.88198867  0.35470200    -0.81900
O1529       O  0.79899334  0.95586759  0.37037537    -0.80200
O1530       O  0.93728682  0.92493405  0.35374200    -0.84400
O1531       O  0.89899440  0.93049005  0.42446560    -0.79200
O1532       O  0.85749846  0.90028367  0.29607258    -0.81000
O1533       O  0.84100886  0.51082794  0.37725740    -0.83800
C1534       C  0.87570501  0.91149312  0.43412719     0.97000
C1535       C  0.93316947  0.89435829  0.35301571     1.04400
O1536       O  0.86802992  0.94546002  0.35545403    -1.12700
O1537       O  0.87213054  0.49987293  0.30407358    -0.75200
O1538       O  0.91875559  0.49089665  0.33600665    -0.78700
O1539       O  0.85625494  0.89793547  0.41108838    -0.79400
C1540       C  0.90306398  0.50403018  0.30929689     0.95900
O1541       O  0.88554841  0.49686722  0.40871441    -0.77300
O1542       O  0.82644538  0.94533050  0.29109040    -0.82500
C1543       C  0.79250932  0.92566439  0.37177485     0.98500
C1544       C  0.83824435  0.91882005  0.27760267     1.04400
O1545       O  0.80809998  0.90619636  0.35130708    -0.78200
C1546       C  0.86064575  0.51503968  0.40405600     1.02700
Fe1547     Fe  0.71750493  0.83278587  0.12497935     1.65800
Fe1548     Fe  0.72313662  0.90359303  0.07995510     1.73200
Fe1549     Fe  0.64769361  0.87183687  0.10094308     1.54400
O1550       O  0.64101764  0.82417591  0.08384728    -0.81900
O1551       O  0.69487080  0.94170512  0.10392890    -0.80200
O1552       O  0.67785912  0.80169272  0.12041696    -0.84400
O1553       O  0.69850538  0.84842612  0.17417683    -0.79200
O1554       O  0.64528216  0.88856380  0.04577725    -0.81000
O1555       O  0.75164874  0.90703611  0.12715284    -0.83800
C1556       C  0.66833505  0.85380835  0.18168188     0.97000
C1557       C  0.65005738  0.80099321  0.10472228     1.04400
O1558       O  0.69579391  0.86937858  0.10075929    -1.12700
O1559       O  0.75433737  0.86732730  0.05493151    -0.75200
O1560       O  0.73659790  0.81853101  0.07522821    -0.78700
O1561       O  0.64623703  0.85768169  0.15680895    -0.79400
C1562       C  0.75426314  0.83589454  0.05375194     0.95900
O1563       O  0.76163318  0.85543930  0.13753129    -0.77300
O1564       O  0.69597080  0.90580839  0.03147631    -0.82500
C1565       C  0.66665132  0.94249624  0.11985087     0.98500
C1566       C  0.66582008  0.90158263  0.02323167     1.04400
O1567       O  0.64769740  0.91826063  0.12004847    -0.78200
C1568       C  0.76721135  0.88508752  0.14429901     1.02700
C1569       C  0.82674929  0.90897591  0.23999152    -0.00400
C1570       C  0.81747351  0.93353854  0.21491456    -0.12200
C1571       C  0.79988095  0.92640044  0.18248821     0.01900
C1572       C  0.79110649  0.89380084  0.17428516    -0.00500
C1573       C  0.80276857  0.86898268  0.19796046    -0.12200
C1574       C  0.82018706  0.87621328  0.23055968     0.01800
H1575       H  0.82276632  0.95877230  0.22150489     0.14700
H1576       H  0.79663386  0.84379240  0.19226884     0.14700
C1577       C  0.82829996  0.84967598  0.25525303     0.36400
C1578       C  0.79023768  0.95340074  0.15920276     0.36300
N1579       N  0.83465486  0.82838954  0.27506430    -0.44000
N1580       N  0.78247248  0.97515062  0.14072700    -0.44000
C1581       C  0.83436942  0.58521216  0.48872507    -0.00400
C1582       C  0.86682315  0.57358656  0.48648722    -0.12200
C1583       C  0.87649216  0.55182749  0.45844428     0.01900
C1584       C  0.85334904  0.54141672  0.43152639    -0.00500
C1585       C  0.82161632  0.55549057  0.43209182    -0.12200
C1586       C  0.81199872  0.57704403  0.46039422     0.01800
H1587       H  0.88419982  0.57983513  0.50817863     0.14700
H1588       H  0.80366732  0.54865655  0.41128027     0.14700
C1589       C  0.77897876  0.59026985  0.45995782     0.36400
C1590       C  0.91009872  0.54016760  0.45891752     0.36300
N1591       N  0.75258976  0.60102345  0.45937264    -0.44000
N1592       N  0.93705123  0.53089073  0.45950890    -0.44000
C1593       C  0.63428987  0.95401593  0.92474800    -0.00400
C1594       C  0.66521352  0.93837150  0.92546347    -0.12200
C1595       C  0.67502083  0.91910684  0.95584123     0.01900
C1596       C  0.65391706  0.91524544  0.98697311    -0.00500
C1597       C  0.62229209  0.92932145  0.98535078    -0.12200
C1598       C  0.61239192  0.94850322  0.95491014     0.01800
H1599       H  0.68217923  0.94169339  0.90244208     0.14700
H1600       H  0.60582831  0.92699659  0.00899870     0.14700
C1601       C  0.58043760  0.96402654  0.95686419     0.36400
C1602       C  0.70701376  0.90362050  0.95431112     0.36300
N1603       N  0.55483893  0.97648532  0.95845728    -0.44000
N1604       N  0.73259607  0.89109887  0.95311668    -0.44000
C1605       C  0.67020133  0.59255645  0.74540404    -0.00400
C1606       C  0.68780830  0.62171319  0.74967390    -0.12200
C1607       C  0.70833554  0.63344710  0.72144201     0.01900
C1608       C  0.71091843  0.61624200  0.68735000    -0.00500
C1609       C  0.69159039  0.58811150  0.68245586    -0.12200
C1610       C  0.67174628  0.57602386  0.71107413     0.01800
H1611       H  0.68701691  0.63454869  0.77605075     0.14700
H1612       H  0.69273353  0.57463289  0.65654111     0.14700
C1613       C  0.65364540  0.54637521  0.70448373     0.36400
C1614       C  0.72733833  0.66229960  0.72936677     0.36300
N1615       N  0.63931197  0.52252158  0.69920648    -0.44000
N1616       N  0.74266421  0.68526514  0.73605534    -0.44000
C1617       C  0.81428504  0.77435012  0.98278758    -0.00400
C1618       C  0.82908222  0.79971688  0.00317756    -0.12200
C1619       C  0.80998966  0.82117072  0.02530010     0.01900
C1620       C  0.77541133  0.81770218  0.02697298    -0.00500
C1621       C  0.76081323  0.79229006  0.00706951    -0.12200
C1622       C  0.77958583  0.77069397  0.98553605     0.01800
H1623       H  0.85556205  0.80282192  0.00188907     0.14700
H1624       H  0.73439667  0.78872016  0.00919766     0.14700
C1625       C  0.76226960  0.74412175  0.96808191     0.36400
C1626       C  0.82648969  0.84512131  0.04787896     0.36300
N1627       N  0.74814508  0.72292860  0.95426023    -0.44000
N1628       N  0.83959726  0.86416438  0.06632224    -0.44000
C1629       C  0.86551193  0.65469639  0.79165336    -0.00400
C1630       C  0.86373051  0.68300868  0.76995518    -0.12200
C1631       C  0.85917090  0.68136868  0.73159094     0.01900
C1632       C  0.85529917  0.65080159  0.71408972    -0.00500
C1633       C  0.86038187  0.62231069  0.73514912    -0.12200
C1634       C  0.86579346  0.62409309  0.77378602     0.01800
H1635       H  0.86471507  0.70670704  0.78334583     0.14700
H1636       H  0.85828440  0.59866758  0.72188603     0.14700
C1637       C  0.86983103  0.59436485  0.79458540     0.36400
C1638       C  0.85827481  0.71154675  0.71093950     0.36300
N1639       N  0.87350197  0.57043115  0.81102194    -0.44000
N1640       N  0.85775702  0.73570911  0.69441796    -0.44000
C1641       C  0.77632258  0.62131649  0.91168656    -0.00400
C1642       C  0.74585601  0.63465828  0.92175939    -0.12200
C1643       C  0.71643349  0.61895128  0.91324725     0.01900
C1644       C  0.71681703  0.58893543  0.89313094    -0.00500
C1645       C  0.74742988  0.57399389  0.88633232    -0.12200
C1646       C  0.77699647  0.58953998  0.89590766     0.01800
H1647       H  0.74487090  0.65828598  0.93519704     0.14700
H1648       H  0.74841709  0.55064679  0.87222753     0.14700
C1649       C  0.80740780  0.57250140  0.88795539     0.36400
C1650       C  0.68652740  0.63559788  0.92449812     0.36300
N1651       N  0.83166791  0.55849565  0.88201632    -0.44000
N1652       N  0.66275931  0.64919044  0.93352541    -0.44000
C1653       C  0.97056989  0.65976370  0.87035437    -0.00400
C1654       C  0.96305316  0.62829005  0.85734217    -0.12200
C1655       C  0.48687262  0.60711134  0.84402434     0.01900
C1656       C  0.51953744  0.61805144  0.84089774    -0.00500
C1657       C  0.52632096  0.65112541  0.84864187    -0.12200
C1658       C  0.00241084  0.67205866  0.86413494     0.01800
H1659       H  0.93851158  0.61859692  0.86121502     0.14700
H1660       H  0.55139819  0.65990640  0.84645283     0.14700
C1661       C  0.01144402  0.70420842  0.87660568     0.36400
C1662       C  0.47785923  0.57388078  0.83570624     0.36300
N1663       N  0.01880465  0.72992559  0.88673733    -0.44000
N1664       N  0.47061541  0.54719598  0.82949714    -0.44000
C1665       C  0.92287527  0.52466179  0.28366135    -0.00400
C1666       C  0.95541625  0.51486890  0.27617579    -0.12200
C1667       C  0.97665938  0.53408853  0.25496813     0.01900
C1668       C  0.96547614  0.56399827  0.23987262    -0.00500
C1669       C  0.93310851  0.57428224  0.24796941    -0.12200
C1670       C  0.91188619  0.55500791  0.26977520     0.01800
H1671       H  0.96453065  0.49201777  0.28735294     0.14700
H1672       H  0.92418824  0.59720124  0.23685187     0.14700
C1673       C  0.87969123  0.56769547  0.27903925     0.36400
C1674       C  0.51036463  0.52342981  0.25115902     0.36300
N1675       N  0.85399604  0.57808174  0.28668632    -0.44000
N1676       N  0.53728818  0.51450506  0.24771807    -0.44000
C1677       C  0.94820071  0.63920775  0.09083841    -0.00400
C1678       C  0.93748323  0.67157785  0.08607277    -0.12200
C1679       C  0.91984005  0.68113921  0.05442032     0.01900
C1680       C  0.91186949  0.65800506  0.02670815    -0.00500
C1681       C  0.92046986  0.62529856  0.03256567    -0.12200
C1682       C  0.93886495  0.61579059  0.06372447     0.01800
H1683       H  0.94397272  0.68991126  0.10647804     0.14700
H1684       H  0.91500268  0.60739879  0.01126148     0.14700
C1685       C  0.95004306  0.58235993  0.06499786     0.36400
C1686       C  0.91097532  0.71510385  0.05069018     0.36300
N1687       N  0.95917580  0.55561642  0.06561166    -0.44000
N1688       N  0.90404106  0.74234690  0.04766365    -0.44000
C1689       C  0.62670566  0.77444433  0.11541971    -0.00400
C1690       C  0.60065925  0.76546509  0.09179710    -0.12200
C1691       C  0.57828562  0.74086087  0.10219894     0.01900
C1692       C  0.58053382  0.72621780  0.13755150    -0.00500
C1693       C  0.60534183  0.73625877  0.16171605    -0.12200
C1694       C  0.62865274  0.75935146  0.15098200     0.01800
H1695       H  0.59845675  0.77680466  0.06472815     0.14700
H1696       H  0.60786988  0.72426824  0.18843407     0.14700
C1697       C  0.65427939  0.76652260  0.17755198     0.36400
C1698       C  0.55394229  0.73007872  0.07586050     0.36300
N1699       N  0.67473662  0.77183501  0.19901916    -0.44000
N1700       N  0.53438217  0.72124438  0.05486647    -0.44000
C1701       C  0.61720300  0.52849275  0.16001165    -0.00400
C1702       C  0.61061689  0.49840765  0.17626591    -0.12200
C1703       C  0.62889875  0.97078887  0.16635613     0.01900
C1704       C  0.65355266  0.97257675  0.13816260    -0.00500
C1705       C  0.66195425  0.00333566  0.12425597    -0.12200
C1706       C  0.64414284  0.53117219  0.13506167     0.01800
H1707       H  0.59033654  0.49631031  0.19582117     0.14700
H1708       H  0.68087250  0.00531568  0.10302915     0.14700
C1709       C  0.65207436  0.56165853  0.11730923     0.36400
C1710       C  0.62107757  0.94082108  0.18535169     0.36300
N1711       N  0.65876834  0.58584212  0.10269884    -0.44000
N1712       N  0.61439355  0.91713568  0.20097608    -0.38400
C1713       C  0.57604610  0.59458918  0.04318767    -0.00400
C1714       C  0.57032698  0.61991062  0.01806605    -0.12200
C1715       C  0.57403538  0.61456995  0.97995859     0.01900
C1716       C  0.58433220  0.58355907  0.96719871    -0.00500
C1717       C  0.59084026  0.55867555  0.99289097    -0.12200
C1718       C  0.58600501  0.56371382  0.03058844     0.01800
H1719       H  0.56158046  0.64334371  0.02816185     0.14700
H1720       H  0.59872274  0.53475042  0.98345336     0.14700
C1721       C  0.58887165  0.53610817  0.05523889     0.36400
C1722       C  0.56483256  0.64045563  0.95490704     0.36300
N1723       N  0.59059719  0.51348266  0.07427065    -0.44000
N1724       N  0.55720211  0.66129382  0.93507164    -0.44000
C1725       C  0.67196972  0.72227589  0.48928583    -0.00400
C1726       C  0.66901762  0.68822280  0.48868467    -0.12200
C1727       C  0.68897634  0.66847101  0.51141666     0.01900
C1728       C  0.71221790  0.68294631  0.53558913    -0.00500
C1729       C  0.71380813  0.71722822  0.53702433    -0.12200
C1730       C  0.69424478  0.73674343  0.51417763     0.01800
H1731       H  0.65203289  0.67699178  0.46937588     0.14700
H1732       H  0.73111599  0.72909241  0.55544681     0.14700
C1733       C  0.69770601  0.77173360  0.51651565     0.36400
C1734       C  0.68483575  0.63363786  0.50933814     0.36300
N1735       N  0.70044671  0.79974224  0.51828887    -0.44000
N1736       N  0.68131831  0.60572497  0.50749636    -0.44000
C1737       C  0.58563395  0.66860939  0.27294134    -0.00400
C1738       C  0.56457145  0.67145323  0.30397751    -0.12200
C1739       C  0.57322695  0.69008871  0.33516316     0.01900
C1740       C  0.60369043  0.70676738  0.33597854    -0.00500
C1741       C  0.62574483  0.70201761  0.30620515    -0.12200
C1742       C  0.61715624  0.68329172  0.27502519     0.01800
H1743       H  0.54064411  0.65985813  0.30353785     0.14700
H1744       H  0.64932669  0.71428762  0.30635742     0.14700
C1745       C  0.64077107  0.68129022  0.24497056     0.36400
C1746       C  0.55006568  0.69167684  0.36571163     0.36300
N1747       N  0.65973686  0.67971587  0.22092256    -0.44000
N1748       N  0.53145838  0.69286092  0.39013987    -0.44000
C1749       C  0.96229818  0.87240679  0.35294237    -0.00400
C1750       C  0.49212073  0.88455541  0.33993369    -0.12200
C1751       C  0.52152824  0.86798385  0.34683256     0.01900
C1752       C  0.52137240  0.83907799  0.36867682    -0.00500
C1753       C  0.99124607  0.82513991  0.37816801    -0.12200
C1754       C  0.96167113  0.84103140  0.36951707     0.01800
H1755       H  0.49284125  0.90786322  0.32576918     0.14700
H1756       H  0.99050903  0.80248591  0.39362204     0.14700
C1757       C  0.93137920  0.82499425  0.37962677     0.36400
C1758       C  0.55134244  0.88214364  0.33194580     0.36300
N1759       N  0.90717951  0.81175656  0.38719777    -0.44000
N1760       N  0.57519463  0.89348350  0.32004197    -0.44000
C1761       C  0.76733163  0.91110892  0.39672485    -0.00400
C1762       C  0.77466799  0.88017745  0.41162890    -0.12200
C1763       C  0.75002205  0.86018062  0.42604771     0.01900
C1764       C  0.71711409  0.87091592  0.42574807    -0.00500
C1765       C  0.71032618  0.90348023  0.41566250    -0.12200
C1766       C  0.73521121  0.92364474  0.40110289     0.01800
H1767       H  0.79947008  0.87047865  0.40955267     0.14700
H1768       H  0.68503873  0.91207088  0.41538081     0.14700
C1769       C  0.72639166  0.95530711  0.38685495     0.36400
C1770       C  0.75883164  0.82804231  0.43908059     0.36300
N1771       N  0.71935134  0.98070083  0.37536212    -0.44000
N1772       N  0.76595485  0.80237114  0.44969234    -0.44000
C1773       C  0.65038162  0.84462528  0.29748395    -0.00400
C1774       C  0.62609896  0.83447111  0.27254433    -0.12200
C1775       C  0.62999317  0.83950057  0.23442079     0.01900
C1776       C  0.65906424  0.85428701  0.22114924    -0.00500
C1777       C  0.68209107  0.86653281  0.24656757    -0.12200
C1778       C  0.67792529  0.86183738  0.28460803     0.01800
H1779       H  0.60477704  0.82137507  0.28279286     0.14700
H1780       H  0.70422834  0.87840347  0.23655856     0.14700
C1781       C  0.70364771  0.87228059  0.30939069     0.36400
C1782       C  0.60500384  0.82717532  0.20972741     0.36300
N1783       N  0.72463222  0.88051529  0.32883911    -0.44000
N1784       N  0.58486336  0.81733984  0.19005531    -0.44000
C1785       C  0.52450247  0.93035425  0.72661479    -0.00400
C1786       C  0.52610187  0.96444176  0.72181744    -0.12200
C1787       C  0.54753637  0.98378307  0.74259749     0.01900
C1788       C  0.56860438  0.96944314  0.76900647    -0.00500
C1789       C  0.56847606  0.93536895  0.77290030    -0.12200
C1790       C  0.54668233  0.91579555  0.75211846     0.01800
H1791       H  0.50983007  0.97650798  0.70232740     0.14700
H1792       H  0.58419728  0.92416548  0.79359826     0.14700
C1793       C  0.04948667  0.88109389  0.75516765     0.36400
C1794       C  0.54685406  0.01864025  0.73691257     0.36300
N1795       N  0.05143807  0.85312595  0.75856877    -0.44000
N1796       N  0.54624017  0.04653160  0.73231261    -0.44000
C1797       C  0.87721029  0.90250859  0.55210997    -0.00400
C1798       C  0.87189135  0.87435800  0.53060546    -0.12200
C1799       C  0.86840414  0.87656459  0.49181382     0.01900
C1800       C  0.87098425  0.90719205  0.47444254    -0.00500
C1801       C  0.87243117  0.93537011  0.49642978    -0.12200
C1802       C  0.87504524  0.93335386  0.53491635     0.01800
H1803       H  0.87268060  0.85058587  0.54365830     0.14700
H1804       H  0.87280527  0.95914654  0.48328108     0.14700
C1805       C  0.87644283  0.96340418  0.55589672     0.36400
C1806       C  0.86424952  0.84713504  0.47044435     0.36300
N1807       N  0.87751579  0.98751715  0.57255787    -0.44000
N1808       N  0.86049368  0.82350345  0.45344406    -0.44000
C1809       C  0.86796851  0.97923466  0.67483743    -0.00400
C1810       C  0.88522855  0.00822935  0.66936792    -0.12200
C1811       C  0.86995964  0.53525328  0.65356833     0.01900
C1812       C  0.83610151  0.53408956  0.64378495    -0.00500
C1813       C  0.81758865  0.50702493  0.65478452    -0.12200
C1814       C  0.83317568  0.97964708  0.67032239     0.01800
H1815       H  0.91160088  0.00897207  0.67408587     0.14700
H1816       H  0.79139205  0.50634608  0.64901991     0.14700
C1817       C  0.81292732  0.95198788  0.67965315     0.36400
C1818       C  0.89084203  0.56279241  0.64552003     0.36300
N1819       N  0.79663139  0.92989573  0.68722086    -0.44000
N1820       N  0.90818620  0.58432492  0.63889530    -0.44000
C1821       C  0.89643055  0.78417718  0.61960533    -0.00400
C1822       C  0.91512625  0.75716447  0.60816827    -0.12200
C1823       C  0.89965647  0.72971695  0.59297892     0.01900
C1824       C  0.86484050  0.72926613  0.58938064    -0.00500
C1825       C  0.84736218  0.75834678  0.59470879    -0.12200
C1826       C  0.86248592  0.78543808  0.61019854     0.01800
H1827       H  0.94141018  0.75651954  0.61344322     0.14700
H1828       H  0.82092247  0.75908192  0.59039567     0.14700
C1829       C  0.84144812  0.81305560  0.61847469     0.36400
C1830       C  0.91997506  0.70204936  0.58308335     0.36300
N1831       N  0.82397775  0.83463080  0.62530051    -0.44000
N1832       N  0.93636054  0.67997764  0.57502146    -0.44000
C1833       C  0.56282134  0.84089473  0.51742899    -0.00400
C1834       C  0.54056119  0.86661929  0.51136875    -0.12200
C1835       C  0.51899246  0.87733306  0.53934096     0.01900
C1836       C  0.52016347  0.86290794  0.57509715    -0.00500
C1837       C  0.54286352  0.83729348  0.58109082    -0.12200
C1838       C  0.56368350  0.82598824  0.55264470     0.01800
H1839       H  0.53896127  0.87752429  0.48397235     0.14700
H1840       H  0.54417642  0.82557530  0.60802972     0.14700
C1841       C  0.58587058  0.79927806  0.56044074     0.36400
C1842       C  0.49505938  0.90201441  0.52957198     0.36300
N1843       N  0.60359715  0.77782141  0.56663427    -0.44000
N1844       N  0.47575676  0.92158715  0.52153399    -0.44000
C1845       C  0.89874389  0.83144426  0.77451404    -0.00400
C1846       C  0.92255997  0.82452445  0.80147146    -0.12200
C1847       C  0.91603180  0.80287966  0.83057849     0.01900
C1848       C  0.88470919  0.78789681  0.83348879    -0.00500
C1849       C  0.86046994  0.79593154  0.80710083    -0.12200
C1850       C  0.86733604  0.81710083  0.77759068     0.01800
H1851       H  0.94697269  0.83478074  0.79863354     0.14700
H1852       H  0.83651133  0.78461280  0.80849880     0.14700
C1853       C  0.84285869  0.82079581  0.74881682     0.36400
C1854       C  0.94302765  0.79485763  0.85498441     0.36300
N1855       N  0.82336953  0.82335721  0.72560034    -0.44000
N1856       N  0.96486135  0.78841133  0.87424105    -0.44000
loop_ 
_geom_bond_atom_site_label_1 
_geom_bond_atom_site_label_2 
_geom_bond_distance 
_geom_bond_site_symmetry_2 
_ccdc_geom_bond_type 
Fe1           O7   2.066       .  S
Fe1           O6   2.066       .  S
Fe1         O945   2.067       .  S
Fe1         O942   2.065       .  S
Fe1          O12   1.929       .  S
Fe2           O5   2.099       .  S
Fe2          O13   2.104       .  S
Fe2          O18   2.088       .  S
Fe2         O937   2.061       .  S
Fe2          O12   1.945       .  S
Fe3          O21   2.033       .  S
Fe3           O8   2.056       .  S
Fe3          O15   2.073       .  S
Fe3           O4   2.054       .  S
Fe3          O12   1.956       .  S
O4           C11   1.263       .  A
O5           C19   1.271       .  A
O6           C11   1.271       .  A
O7           C10   1.272       .  A
O8           C20   1.275       .  A
O9         Fe930   2.060       .  S
O9           C22   1.267       .  A
C10          O15   1.272       .  A
C10         C405   1.479       .  S
C11         C417   1.488       .  S
O13         C944   1.281       .  A
O14        Fe929   2.064       .  S
O14          C16   1.273       .  A
C16         O941   1.281       .  A
C16         C393   1.505   1_655  S
O17        Fe929   2.069       .  S
O17          C22   1.269       .  A
O18          C20   1.278       .  A
C19          O21   1.255       .  A
C19         C429   1.481       .  S
C20         C453   1.476       .  S
C22         C444   1.496   1_655  S
Fe23         O39   2.090       .  S
Fe23         O29   2.036       .  S
Fe23         O36   2.038       .  S
Fe23         O28   2.097       .  S
Fe23         O34   1.940       .  S
Fe24         O27   2.107       .  S
Fe24         O31   2.054       .  S
Fe24         O35   2.116       .  S
Fe24         O40   2.062       .  S
Fe24         O34   1.948       .  S
Fe25         O43   2.010       .  S
Fe25         O30   2.072       .  S
Fe25         O37   2.080       .  S
Fe25         O26   2.045       .  S
Fe25         O34   1.951       .  S
O26          C33   1.265       .  A
O27          C41   1.280       .  A
O28          C33   1.276       .  A
O29          C32   1.265       .  A
O30          C42   1.270       .  A
O31          C44   1.263       .  A
C32          O37   1.270       .  A
C32         C381   1.455       .  S
C33         C372   1.482       .  S
O35          C38   1.283       .  A
O36          C38   1.271       .  A
C38         C333   1.477       .  S
O39          C44   1.271       .  A
O40          C42   1.269       .  A
C41          O43   1.260       .  A
C41         C360   1.487       .  S
C42         C441   1.482       .  S
C44         C348   1.498       .  S
Fe45         O51   2.022       .  S
Fe45         O50   2.092       .  S
Fe45        O989   2.083   1_455  S
Fe45        O986   2.026       .  S
Fe45         O56   1.937       .  S
Fe46         O49   2.120       .  S
Fe46         O62   2.063       .  S
Fe46        O981   2.072   1_455  S
Fe46        O985   2.134   1_455  S
Fe46         O56   1.940       .  S
Fe47         O65   2.028       .  S
Fe47         O52   2.096       .  S
Fe47         O59   2.075       .  S
Fe47         O48   2.050       .  S
Fe47         O56   1.936       .  S
O48          C55   1.265       .  A
O49          C63   1.278       .  A
O50          C55   1.273       .  A
O51          C54   1.263       .  A
O52          C64   1.278       .  A
O53        Fe974   2.072       .  S
O53          C66   1.270       .  A
C54          O59   1.271       .  A
C54         C321   1.443       .  S
C55         C309   1.478       .  S
O57        Fe974   2.134       .  S
O57          C60   1.286       .  A
O58        Fe973   2.027       .  S
O58          C60   1.269       .  A
C60         C276   1.492       .  S
O61        Fe973   2.083       .  S
O61          C66   1.269       .  A
O62          C64   1.275       .  A
C63          O65   1.259       .  A
C63         C300   1.475       .  S
C64         C345   1.500       .  S
C66         C285   1.499       .  S
Fe67         O83   2.065       .  S
Fe67         O73   2.066       .  S
Fe67         O80   2.063       .  S
Fe67         O72   2.071       .  S
Fe67         O78   1.932       .  S
Fe68         O71   2.119       .  S
Fe68         O75   2.059       .  S
Fe68         O79   2.107       .  S
Fe68         O84   2.094       .  S
Fe68         O78   1.952       .  S
Fe69         O87   2.029       .  S
Fe69         O74   2.073       .  S
Fe69         O81   2.090       .  S
Fe69         O70   2.055       .  S
Fe69         O78   1.958       .  S
O70          C77   1.260       .  A
O71          C85   1.269       .  A
O72          C77   1.270       .  A
O73          C76   1.275       .  A
O74          C86   1.281       .  A
O75          C88   1.265       .  A
C76          O81   1.279       .  A
C76         C237   1.479       .  S
C77         C249   1.492       .  S
O79          C82   1.282       .  A
O80          C82   1.274       .  A
C82         C225   1.501       .  S
O83          C88   1.268       .  A
O84          C86   1.281       .  A
C85          O87   1.251       .  A
C85         C261   1.485       .  S
C86         C288   1.488   1_556  S
C88         C456   1.493       .  S
Fe89         O95   2.016       .  S
Fe89         O94   2.089       .  S
Fe89        O569   2.094   1_545  S
Fe89        O566   2.030       .  S
Fe89        O100   1.936       .  S
Fe90         O93   2.129       .  S
Fe90        O106   2.062       .  S
Fe90        O561   2.072   1_545  S
Fe90        O565   2.141   1_545  S
Fe90        O100   1.945       .  S
Fe91        O109   2.012       .  S
Fe91         O96   2.065       .  S
Fe91        O103   2.075       .  S
Fe91         O92   2.041       .  S
Fe91        O100   1.946       .  S
O92          C99   1.262       .  A
O93         C107   1.283       .  A
O94          C99   1.274       .  A
O95          C98   1.266       .  A
O96         C108   1.271       .  A
O97        Fe554   2.072       .  S
O97         C110   1.269       .  A
C98         O103   1.271       .  A
C98         C324   1.463       .  S
C99         C264   1.483       .  S
O101       Fe554   2.141       .  S
O101        C104   1.287       .  A
O102       Fe553   2.030       .  S
O102        C104   1.269       .  A
C104        C396   1.486       .  S
O105       Fe553   2.095       .  S
O105        C110   1.272       .  A
O106        C108   1.272       .  A
C107        O109   1.258       .  A
C107        C252   1.499       .  S
C108        C213   1.480       .  S
C110        C201   1.504       .  S
Fe111       O127   2.058       .  S
Fe111       O117   2.078       .  S
Fe111       O124   2.064       .  S
Fe111       O116   2.060       .  S
Fe111       O122   1.928       .  S
Fe112       O115   2.103       .  S
Fe112       O119   2.059       .  S
Fe112       O123   2.091       .  S
Fe112       O128   2.090       .  S
Fe112       O122   1.943       .  S
Fe113       O131   2.036       .  S
Fe113       O118   2.056       .  S
Fe113       O125   2.076       .  S
Fe113       O114   2.054       .  S
Fe113       O122   1.950       .  S
O114        C121   1.262       .  A
O115        C129   1.271       .  A
O116        C121   1.268       .  A
O117        C120   1.276       .  A
O118        C130   1.275       .  A
O119        C132   1.268       .  A
C120        O125   1.273       .  A
C120        C240   1.485       .  S
C121        C432   1.485       .  S
O123        C126   1.279       .  A
O124        C126   1.274       .  A
C126        C336   1.496       .  S
O127        C132   1.267       .  A
O128        C130   1.278       .  A
C129        O131   1.255       .  A
C129        C420   1.485       .  S
C130        C189   1.475       .  S
C132        C216   1.490       .  S
Fe133       O139   2.065       .  S
Fe133       O138   2.069       .  S
Fe133       O613   2.062       .  S
Fe133       O610   2.058       .  S
Fe133       O144   1.938       .  S
Fe134       O137   2.116       .  S
Fe134       O150   2.096       .  S
Fe134       O605   2.061       .  S
Fe134       O609   2.106       .  S
Fe134       O144   1.951       .  S
Fe135       O153   2.030       .  S
Fe135       O140   2.064       .  S
Fe135       O147   2.076       .  S
Fe135       O136   2.043       .  S
Fe135       O144   1.961       .  S
O136        C143   1.258       .  A
O137        C151   1.270       .  A
O138        C143   1.268       .  A
O139        C142   1.276       .  A
O140        C152   1.278       .  A
O141       Fe598   2.061   1_545  S
O141        C154   1.266       .  A
C142        O147   1.276       .  A
C142        C408   1.473       .  S
C143        C357   1.484       .  S
O145       Fe598   2.106   1_545  S
O145        C148   1.283       .  A
O146       Fe597   2.057       .  S
O146        C148   1.274   1_565  A
C148        C273   1.491       .  S
O149       Fe597   2.062       .  S
O149        C154   1.266   1_565  A
O150        C152   1.281       .  A
C151        O153   1.253       .  A
C151        C369   1.486       .  S
C152        C177   1.488       .  S
C154        C192   1.493       .  S
Fe155       O171   2.073       .  S
Fe155       O161   2.030       .  S
Fe155       O168   2.032       .  S
Fe155       O160   2.067       .  S
Fe155       O166   1.947       .  S
Fe156       O159   2.116       .  S
Fe156       O163   2.064       .  S
Fe156       O167   2.145       .  S
Fe156       O172   2.069       .  S
Fe156       O166   1.943       .  S
Fe157       O175   2.025       .  S
Fe157       O162   2.104       .  S
Fe157       O169   2.094       .  S
Fe157       O158   2.069       .  S
Fe157       O166   1.955       .  S
O158        C165   1.267       .  A
O159        C173   1.279       .  A
O160        C165   1.265       .  A
O161        C164   1.272       .  A
O162        C174   1.280       .  A
O163        C176   1.261       .  A
C164        O169   1.279       .  A
C164        C384   1.468       .  S
C165        C297   1.498       .  S
O167        C170   1.291       .  A
O168        C170   1.274       .  A
C170        C228   1.486       .  S
O171        C176   1.262       .  A
O172        C174   1.273       .  A
C173        O175   1.261       .  A
C173        C312   1.493       .  S
C174        C204   1.502   1_554  S
C176        C180   1.497       .  S
C177        C178   1.405       .  A
C177        C182   1.413       .  A
C178        C179   1.402       .  A
C178        H183   1.085       .  S
C179        C180   1.417       .  A
C179        C186   1.444       .  S
C180        C181   1.410       .  A
C181        C182   1.403       .  A
C181        H184   1.084       .  S
C182        C185   1.445       .  S
C185        N187   1.157       .  T
C186        N188   1.157       .  T
C189        C190   1.401       .  A
C189        C194   1.408       .  A
C190        C191   1.400       .  A
C190        H195   1.085       .  S
C191        C192   1.419       .  A
C191        C198   1.444       .  S
C192        C193   1.410       .  A
C193        C194   1.401       .  A
C193        H196   1.084       .  S
C194        C197   1.444       .  S
C197        N199   1.157       .  T
C198        N200   1.157       .  T
C201        C202   1.408       .  A
C201        C206   1.420       .  A
C202        C203   1.408       .  A
C202        H207   1.084       .  S
C203        C204   1.417       .  A
C203        C210   1.444       .  S
C204        C205   1.407       .  A
C205        C206   1.409       .  A
C205        H208   1.084   1_556  S
C206        C209   1.444       .  S
C209        N211   1.157       .  T
C210        N212   1.157       .  T
C213        C214   1.406       .  A
C213        C218   1.409       .  A
C214        C215   1.399       .  A
C214        H219   1.085       .  S
C215        C216   1.417       .  A
C215        C222   1.445       .  S
C216        C217   1.411       .  A
C217        C218   1.398       .  A
C217        H220   1.084       .  S
C218        C221   1.445       .  S
C221        N223   1.157       .  T
C222        N224   1.158       .  T
C225        C226   1.411   1_556  A
C225        C230   1.421       .  A
C226        C227   1.413       .  A
C226        H231   1.084       .  S
C227        C228   1.413       .  A
C227        C234   1.443       .  S
C228        C229   1.400       .  A
C229        C230   1.398   1_554  A
C229        H232   1.086       .  S
C230        C233   1.445       .  S
C233        N235   1.157       .  T
C234        N236   1.157       .  T
C237        C238   1.403       .  A
C237        C242   1.410       .  A
C238        C239   1.394       .  A
C238        H243   1.086       .  S
C239        C240   1.413       .  A
C239        C246   1.446       .  S
C240        C241   1.410       .  A
C241        C242   1.410       .  A
C241        H244   1.085       .  S
C242        C245   1.442       .  S
C245        N247   1.157       .  T
C246        N248   1.157       .  T
C249        C250   1.396       .  A
C249        C254   1.422       .  A
C250        C251   1.394       .  A
C250        H255   1.084       .  S
C251        C252   1.429       .  A
C251        C258   1.447       .  S
C252        C253   1.404       .  A
C253        C254   1.407       .  A
C253        H256   1.084       .  S
C254        C257   1.444       .  S
C257        N259   1.157       .  T
C258        N260   1.158       .  T
C261        C262   1.409       .  A
C261        C266   1.408       .  A
C262       C1191   1.392       .  A
C262        H267   1.084       .  S
C263        C264   1.406   1_655  A
C263       C1190   1.392       .  A
C263        C270   1.445       .  S
C264        C265   1.414       .  A
C265       C1194   1.410       .  A
C265        H268   1.084       .  S
C266       C1193   1.410       .  A
C266        C269   1.443       .  S
C269        N271   1.157       .  T
C270        N272   1.157       .  T
C273        C274   1.405       .  A
C273        C278   1.414       .  A
C274        C275   1.397       .  A
C274        H279   1.085   1_545  S
C275        C276   1.417       .  A
C275       C1210   1.446       .  S
C276        C277   1.408       .  A
C277        C278   1.410       .  A
C277        H280   1.084       .  S
C278        C281   1.442       .  S
C281        N283   1.157       .  T
C282       C1203   1.446   1_455  S
C282        N284   1.157       .  T
C285        C286   1.407       .  A
C285        C290   1.422       .  A
C286        C287   1.403       .  A
C286        H291   1.084       .  S
C287        C288   1.415       .  A
C287        C294   1.445       .  S
C288        C289   1.402       .  A
C289        C290   1.404       .  A
C289        H292   1.085       .  S
C290        C293   1.444       .  S
C293        N295   1.157       .  T
C294        N296   1.157       .  T
C297        C298   1.409       .  A
C297        C302   1.425       .  A
C298        C299   1.411       .  A
C298        H303   1.084       .  S
C299        C300   1.411       .  A
C299        C306   1.443       .  S
C300        C301   1.397       .  A
C301        C302   1.397       .  A
C301        H304   1.086       .  S
C302        C305   1.447       .  S
C305        N307   1.158       .  T
C306        N308   1.157       .  T
C309        C310   1.394   1_545  A
C309        C314   1.417       .  A
C310        C775   1.399       .  A
C310        H315   1.085       .  S
C311        C312   1.424       .  A
C311        C774   1.399       .  A
C311        C318   1.444       .  S
C312        C313   1.402       .  A
C313        C778   1.406       .  A
C313        H316   1.084       .  S
C314        C777   1.406       .  A
C314        C317   1.443       .  S
C317        N319   1.157       .  T
C318        N320   1.157       .  T
C321        C322   1.398       .  A
C321        C326   1.403       .  A
C322        C323   1.395   1_554  A
C322        H327   1.085       .  S
C323        C324   1.413       .  A
C323        C330   1.443       .  S
C324        C325   1.403       .  A
C325        C326   1.384   1_556  A
C325        H328   1.085       .  S
C326        C329   1.445       .  S
C329        N331   1.157       .  T
C330        N332   1.157       .  T
C333        C334   1.404       .  A
C333        C338   1.407       .  A
C334        C335   1.409       .  A
C334        H339   1.085       .  S
C335        C336   1.418       .  A
C335        C342   1.443       .  S
C336        C337   1.410       .  A
C337        C338   1.396       .  A
C337        H340   1.084       .  S
C338        C341   1.446       .  S
C341        N343   1.157       .  T
C342        N344   1.157       .  T
C345        C346   1.408       .  A
C345        C350   1.420       .  A
C346        C347   1.404       .  A
C346        H351   1.084       .  S
C347        C348   1.417       .  A
C347        C354   1.445       .  S
C348        C349   1.406       .  A
C349        C350   1.405       .  A
C349        H352   1.084       .  S
C350        C353   1.444       .  S
C353        N355   1.157       .  T
C354        N356   1.157       .  T
C357        C362   1.421       .  A
C357       C1286   1.398       .  A
C358        C359   1.395   1_655  A
C358       C1285   1.398       .  A
C358        H363   1.085       .  S
C359        C360   1.424       .  A
C359        C366   1.447       .  S
C360       C1289   1.401   1_455  A
C361        C362   1.401       .  A
C361       C1288   1.401       .  A
C361        H364   1.085       .  S
C362        C365   1.444       .  S
C365        N367   1.157       .  T
C366        N368   1.158       .  T
C369        C370   1.410       .  A
C369        C374   1.408       .  A
C370        C371   1.396       .  A
C370        H375   1.083       .  S
C371        C372   1.405       .  A
C371        C378   1.445       .  S
C372        C373   1.412       .  A
C373        C374   1.410       .  A
C373        H376   1.084       .  S
C374        C377   1.442       .  S
C377        N379   1.157       .  T
C378        N380   1.157       .  T
C381        C382   1.400       .  A
C381        C386   1.404       .  A
C382        C383   1.395       .  A
C382        H387   1.085       .  S
C383        C384   1.412       .  A
C383        C390   1.444       .  S
C384        C385   1.404       .  A
C385        C386   1.392       .  A
C385        H388   1.085       .  S
C386        C389   1.442       .  S
C389        N391   1.156       .  T
C390        N392   1.157       .  T
C393        C394   1.411       .  A
C393        C398   1.419       .  A
C394        C395   1.398       .  A
C394        H399   1.084       .  S
C395        C396   1.409       .  A
C395        C402   1.446       .  S
C396        C397   1.406       .  A
C397        C398   1.414       .  A
C397        H400   1.084       .  S
C398       C1329   1.442       .  S
C401       C1326   1.442       .  S
C401        N403   1.157       .  T
C402        N404   1.157       .  T
C405        C406   1.408       .  A
C405        C410   1.413       .  A
C406        C407   1.407       .  A
C406        H411   1.084       .  S
C407        C408   1.409       .  A
C407        C414   1.442       .  S
C408        C409   1.402       .  A
C409        C410   1.392       .  A
C409        H412   1.086       .  S
C410        C413   1.446       .  S
C413        N415   1.157       .  T
C414        N416   1.157       .  T
C417        C418   1.398       .  A
C417        C422   1.422       .  A
C418        C883   1.391       .  A
C418        H423   1.085       .  S
C419        C420   1.422       .  A
C419        C882   1.391       .  A
C419        C426   1.446       .  S
C420        C421   1.401       .  A
C421        C886   1.405   1_545  A
C421        H424   1.085       .  S
C422        C885   1.405       .  A
C422        C425   1.444       .  S
C425        N427   1.157       .  T
C426        N428   1.157       .  T
C429        C430   1.401       .  A
C429        C434   1.421       .  A
C430        C431   1.403       .  A
C430        H435   1.085       .  S
C431        C432   1.421       .  A
C431        C438   1.444       .  S
C432        C433   1.398       .  A
C433        C434   1.390       .  A
C433        H436   1.086       .  S
C434        C437   1.446       .  S
C437        N439   1.158       .  T
C438        N440   1.157       .  T
C441        C442   1.405       .  A
C441        C446   1.409       .  A
C442        C443   1.400       .  A
C442        H447   1.085       .  S
C443        C444   1.418       .  A
C443        C450   1.445   1_455  S
C444        C445   1.413       .  A
C445        C446   1.402       .  A
C445        H448   1.084       .  S
C446        C449   1.445       .  S
C449        N451   1.157       .  T
C450        N452   1.158       .  T
C453        C454   1.401       .  A
C453        C458   1.411       .  A
C454        C455   1.400       .  A
C454        H459   1.084       .  S
C455        C456   1.420       .  A
C455        C462   1.444       .  S
C456        C457   1.409       .  A
C457        C458   1.401       .  A
C457        H460   1.081       .  S
C458        C461   1.446       .  S
C461        N463   1.157       .  T
C462        N464   1.157       .  T
Fe465      O1409   2.067       .  S
Fe465       O471   2.066       .  S
Fe465      O1406   2.065       .  S
Fe465       O470   2.066       .  S
Fe465       O476   1.929       .  S
Fe466       O469   2.098       .  S
Fe466      O1401   2.061       .  S
Fe466       O477   2.104       .  S
Fe466       O482   2.088       .  S
Fe466       O476   1.945       .  S
Fe467       O485   2.033       .  S
Fe467       O472   2.056       .  S
Fe467       O479   2.073       .  S
Fe467       O468   2.054       .  S
Fe467       O476   1.956       .  S
O468        C475   1.263       .  A
O469        C483   1.271       .  A
O470        C475   1.271       .  A
O471        C474   1.272       .  A
O472        C484   1.275       .  A
O473      Fe1394   2.060       .  S
O473        C486   1.267       .  A
C474        O479   1.272       .  A
C474        C869   1.479       .  S
C475        C881   1.488       .  S
O477       C1408   1.281       .  A
O478      Fe1393   2.064       .  S
O478        C480   1.273       .  A
C480       O1405   1.281       .  A
C480        C857   1.504   1_655  S
O481      Fe1393   2.069       .  S
O481        C486   1.269       .  A
O482        C484   1.278       .  A
C483        O485   1.255       .  A
C483        C893   1.481       .  S
C484        C917   1.476       .  S
C486        C908   1.496   1_655  S
Fe487       O503   2.090       .  S
Fe487       O493   2.036       .  S
Fe487       O500   2.039       .  S
Fe487       O492   2.096       .  S
Fe487       O498   1.940       .  S
Fe488       O491   2.108       .  S
Fe488       O495   2.054       .  S
Fe488       O499   2.116       .  S
Fe488       O504   2.062       .  S
Fe488       O498   1.948       .  S
Fe489       O507   2.011       .  S
Fe489       O494   2.072       .  S
Fe489       O501   2.079       .  S
Fe489       O490   2.045       .  S
Fe489       O498   1.951       .  S
O490        C497   1.265       .  A
O491        C505   1.280       .  A
O492        C497   1.276       .  A
O493        C496   1.265       .  A
O494        C506   1.270       .  A
O495        C508   1.263       .  A
C496        O501   1.270       .  A
C496        C845   1.455       .  S
C497        C836   1.482       .  S
O499        C502   1.283       .  A
O500        C502   1.271       .  A
C502        C797   1.477       .  S
O503        C508   1.270       .  A
O504        C506   1.269       .  A
C505        O507   1.260       .  A
C505        C824   1.488       .  S
C506        C905   1.482       .  S
C508        C812   1.497       .  S
Fe509      O1453   2.083   1_455  S
Fe509       O515   2.022       .  S
Fe509      O1450   2.027       .  S
Fe509       O514   2.093       .  S
Fe509       O520   1.937       .  S
Fe510       O513   2.120       .  S
Fe510      O1445   2.073   1_455  S
Fe510      O1449   2.134   1_455  S
Fe510       O526   2.063       .  S
Fe510       O520   1.940       .  S
Fe511       O529   2.028       .  S
Fe511       O516   2.096       .  S
Fe511       O523   2.075       .  S
Fe511       O512   2.050       .  S
Fe511       O520   1.936       .  S
O512        C519   1.265       .  A
O513        C527   1.278       .  A
O514        C519   1.273       .  A
O515        C518   1.263       .  A
O516        C528   1.278       .  A
O517      Fe1438   2.072       .  S
O517        C530   1.270       .  A
C518        O523   1.271       .  A
C518        C785   1.442       .  S
C519        C773   1.478       .  S
O521      Fe1438   2.135       .  S
O521        C524   1.286       .  A
O522      Fe1437   2.028       .  S
O522        C524   1.269       .  A
C524        C740   1.492       .  S
O525      Fe1437   2.083       .  S
O525        C530   1.269       .  A
O526        C528   1.275       .  A
C527        O529   1.259       .  A
C527        C764   1.475       .  S
C528        C809   1.500       .  S
C530        C749   1.499       .  S
Fe531       O547   2.065       .  S
Fe531       O537   2.066       .  S
Fe531       O544   2.063       .  S
Fe531       O536   2.071       .  S
Fe531       O542   1.933       .  S
Fe532       O535   2.119       .  S
Fe532       O539   2.059       .  S
Fe532       O543   2.107       .  S
Fe532       O548   2.094       .  S
Fe532       O542   1.952       .  S
Fe533       O551   2.029       .  S
Fe533       O538   2.073       .  S
Fe533       O545   2.090       .  S
Fe533       O534   2.055       .  S
Fe533       O542   1.958       .  S
O534        C541   1.260       .  A
O535        C549   1.269       .  A
O536        C541   1.270       .  A
O537        C540   1.275       .  A
O538        C550   1.281       .  A
O539        C552   1.265       .  A
C540        O545   1.279       .  A
C540        C701   1.479       .  S
C541        C713   1.492       .  S
O543        C546   1.282       .  A
O544        C546   1.274       .  A
C546        C689   1.501       .  S
O547        C552   1.268       .  A
O548        C550   1.281       .  A
C549        O551   1.252       .  A
C549        C725   1.484       .  S
C550        C752   1.489   1_556  S
C552        C920   1.493       .  S
Fe553       O559   2.016       .  S
Fe553       O558   2.089       .  S
Fe553       O564   1.936       .  S
Fe554       O557   2.129       .  S
Fe554       O570   2.062       .  S
Fe554       O564   1.945       .  S
Fe555       O573   2.012       .  S
Fe555       O560   2.065       .  S
Fe555       O567   2.075       .  S
Fe555       O556   2.041       .  S
Fe555       O564   1.946       .  S
O556        C563   1.262       .  A
O557        C571   1.282       .  A
O558        C563   1.274       .  A
O559        C562   1.266       .  A
O560        C572   1.271       .  A
O561        C574   1.269       .  A
C562        O567   1.271       .  A
C562        C788   1.463       .  S
C563        C728   1.483       .  S
O565        C568   1.287       .  A
O566        C568   1.269   1_545  A
C568        C860   1.486       .  S
O569        C574   1.272       .  A
O570        C572   1.272       .  A
C571        O573   1.258       .  A
C571        C716   1.499       .  S
C572        C677   1.480       .  S
C574        C665   1.504       .  S
Fe575       O591   2.059       .  S
Fe575       O581   2.078       .  S
Fe575       O588   2.065       .  S
Fe575       O580   2.060       .  S
Fe575       O586   1.928       .  S
Fe576       O579   2.103       .  S
Fe576       O583   2.059       .  S
Fe576       O587   2.091       .  S
Fe576       O592   2.090       .  S
Fe576       O586   1.943       .  S
Fe577       O595   2.036       .  S
Fe577       O582   2.056       .  S
Fe577       O589   2.076       .  S
Fe577       O578   2.054       .  S
Fe577       O586   1.950       .  S
O578        C585   1.262       .  A
O579        C593   1.271       .  A
O580        C585   1.268       .  A
O581        C584   1.276       .  A
O582        C594   1.275       .  A
O583        C596   1.268       .  A
C584        O589   1.273       .  A
C584        C704   1.485       .  S
C585        C896   1.485       .  S
O587        C590   1.279       .  A
O588        C590   1.274       .  A
C590        C800   1.496       .  S
O591        C596   1.267       .  A
O592        C594   1.278       .  A
C593        O595   1.255       .  A
C593        C884   1.484       .  S
C594        C653   1.476       .  S
C596        C680   1.491       .  S
Fe597       O603   2.065       .  S
Fe597       O602   2.069       .  S
Fe597       O608   1.938       .  S
Fe598       O601   2.116       .  S
Fe598       O614   2.096       .  S
Fe598       O608   1.951       .  S
Fe599       O617   2.031       .  S
Fe599       O604   2.064       .  S
Fe599       O611   2.076       .  S
Fe599       O600   2.043       .  S
Fe599       O608   1.961       .  S
O600        C607   1.258       .  A
O601        C615   1.270       .  A
O602        C607   1.268       .  A
O603        C606   1.276       .  A
O604        C616   1.278       .  A
O605        C618   1.266       .  A
C606        O611   1.276       .  A
C606        C872   1.474       .  S
C607        C821   1.484       .  S
O609        C612   1.283       .  A
O610        C612   1.274       .  A
C612        C737   1.491       .  S
O613        C618   1.266       .  A
O614        C616   1.281       .  A
C615        O617   1.253       .  A
C615        C833   1.486       .  S
C616        C641   1.488       .  S
C618        C656   1.493       .  S
Fe619       O635   2.073       .  S
Fe619       O625   2.030       .  S
Fe619       O632   2.031       .  S
Fe619       O624   2.067       .  S
Fe619       O630   1.946       .  S
Fe620       O623   2.115       .  S
Fe620       O627   2.064       .  S
Fe620       O631   2.145       .  S
Fe620       O636   2.069       .  S
Fe620       O630   1.943       .  S
Fe621       O639   2.025       .  S
Fe621       O626   2.104       .  S
Fe621       O633   2.094       .  S
Fe621       O622   2.069       .  S
Fe621       O630   1.954       .  S
O622        C629   1.267       .  A
O623        C637   1.279       .  A
O624        C629   1.265       .  A
O625        C628   1.272       .  A
O626        C638   1.280       .  A
O627        C640   1.261       .  A
C628        O633   1.279       .  A
C628        C848   1.468       .  S
C629        C761   1.498       .  S
O631        C634   1.291       .  A
O632        C634   1.274       .  A
C634        C692   1.486       .  S
O635        C640   1.262       .  A
O636        C638   1.273       .  A
C637        O639   1.261       .  A
C637        C776   1.493       .  S
C638        C668   1.502   1_554  S
C640        C644   1.497       .  S
C641        C642   1.406       .  A
C641        C646   1.413       .  A
C642        C643   1.402       .  A
C642        H647   1.085       .  S
C643        C644   1.417       .  A
C643        C650   1.444       .  S
C644        C645   1.410       .  A
C645        C646   1.403       .  A
C645        H648   1.084       .  S
C646        C649   1.445       .  S
C649        N651   1.157       .  T
C650        N652   1.157       .  T
C653        C654   1.401       .  A
C653        C658   1.408       .  A
C654        C655   1.400       .  A
C654        H659   1.085       .  S
C655        C656   1.419       .  A
C655        C662   1.444       .  S
C656        C657   1.410       .  A
C657        C658   1.401       .  A
C657        H660   1.084       .  S
C658        C661   1.444       .  S
C661        N663   1.157       .  T
C662        N664   1.157       .  T
C665        C666   1.408       .  A
C665        C670   1.420       .  A
C666        C667   1.408       .  A
C666        H671   1.084       .  S
C667        C668   1.417       .  A
C667        C674   1.444       .  S
C668        C669   1.407       .  A
C669        C670   1.409       .  A
C669        H672   1.084   1_556  S
C670        C673   1.444       .  S
C673        N675   1.157       .  T
C674        N676   1.157       .  T
C677        C678   1.406       .  A
C677        C682   1.409       .  A
C678        C679   1.399       .  A
C678        H683   1.085       .  S
C679        C680   1.417       .  A
C679        C686   1.445       .  S
C680        C681   1.411       .  A
C681        C682   1.398       .  A
C681        H684   1.084       .  S
C682        C685   1.445       .  S
C685        N687   1.157       .  T
C686        N688   1.158       .  T
C689        C690   1.411   1_556  A
C689        C694   1.421       .  A
C690        C691   1.413       .  A
C690        H695   1.084       .  S
C691        C692   1.413       .  A
C691        C698   1.443       .  S
C692        C693   1.400       .  A
C693        C694   1.398   1_554  A
C693        H696   1.086       .  S
C694        C697   1.444       .  S
C697        N699   1.157       .  T
C698        N700   1.157       .  T
C701        C702   1.403       .  A
C701        C706   1.410       .  A
C702        C703   1.395       .  A
C702        H707   1.086       .  S
C703        C704   1.413       .  A
C703        C710   1.446       .  S
C704        C705   1.409       .  A
C705        C706   1.410       .  A
C705        H708   1.085       .  S
C706        C709   1.442       .  S
C709        N711   1.157       .  T
C710        N712   1.157       .  T
C713        C714   1.396       .  A
C713        C718   1.422       .  A
C714        C715   1.394       .  A
C714        H719   1.083       .  S
C715        C716   1.429       .  A
C715        C722   1.447       .  S
C716        C717   1.404       .  A
C717        C718   1.407       .  A
C717        H720   1.084       .  S
C718        C721   1.444       .  S
C721        N723   1.157       .  T
C722        N724   1.158       .  T
C725        C726   1.409       .  A
C725        C730   1.407       .  A
C726       C1655   1.392       .  A
C726        H731   1.084       .  S
C727       C1654   1.392       .  A
C727        C728   1.406   1_655  A
C727        C734   1.445       .  S
C728        C729   1.414       .  A
C729       C1658   1.410       .  A
C729        H732   1.084       .  S
C730       C1657   1.410       .  A
C730        C733   1.443       .  S
C733        N735   1.157       .  T
C734        N736   1.157       .  T
C737        C738   1.405       .  A
C737        C742   1.414       .  A
C738        C739   1.398       .  A
C738        H743   1.085       .  S
C739        C740   1.417       .  A
C739       C1674   1.446       .  S
C740        C741   1.408       .  A
C741        C742   1.410       .  A
C741        H744   1.084       .  S
C742        C745   1.442       .  S
C745        N747   1.157       .  T
C746       C1667   1.446   1_455  S
C746        N748   1.157       .  T
C749        C750   1.407       .  A
C749        C754   1.422       .  A
C750        C751   1.403       .  A
C750        H755   1.084       .  S
C751        C752   1.415       .  A
C751        C758   1.445       .  S
C752        C753   1.402       .  A
C753        C754   1.404       .  A
C753        H756   1.085       .  S
C754        C757   1.444       .  S
C757        N759   1.157       .  T
C758        N760   1.157       .  T
C761        C762   1.409       .  A
C761        C766   1.425       .  A
C762        C763   1.411       .  A
C762        H767   1.084       .  S
C763        C764   1.411       .  A
C763        C770   1.443       .  S
C764        C765   1.397       .  A
C765        C766   1.397       .  A
C765        H768   1.086       .  S
C766        C769   1.447       .  S
C769        N771   1.158       .  T
C770        N772   1.157       .  T
C773        C774   1.394       .  A
C773        C778   1.417       .  A
C774        H779   1.085       .  S
C775        C776   1.424       .  A
C775        C782   1.444       .  S
C776        C777   1.402   1_565  A
C777        H780   1.084       .  S
C778        C781   1.443       .  S
C781        N783   1.157       .  T
C782        N784   1.157       .  T
C785        C786   1.398       .  A
C785        C790   1.403       .  A
C786        C787   1.395   1_554  A
C786        H791   1.085       .  S
C787        C788   1.413       .  A
C787        C794   1.443       .  S
C788        C789   1.403       .  A
C789        C790   1.384   1_556  A
C789        H792   1.085       .  S
C790        C793   1.445       .  S
C793        N795   1.157       .  T
C794        N796   1.157       .  T
C797        C798   1.404       .  A
C797        C802   1.407       .  A
C798        C799   1.409       .  A
C798        H803   1.085       .  S
C799        C800   1.418       .  A
C799        C806   1.443       .  S
C800        C801   1.410       .  A
C801        C802   1.396       .  A
C801        H804   1.084       .  S
C802        C805   1.446       .  S
C805        N807   1.157       .  T
C806        N808   1.157       .  T
C809        C810   1.408       .  A
C809        C814   1.420       .  A
C810        C811   1.404       .  A
C810        H815   1.084       .  S
C811        C812   1.417       .  A
C811        C818   1.445       .  S
C812        C813   1.406       .  A
C813        C814   1.405       .  A
C813        H816   1.084       .  S
C814        C817   1.444       .  S
C817        N819   1.157       .  T
C818        N820   1.157       .  T
C821       C1750   1.398       .  A
C821        C826   1.421       .  A
C822       C1749   1.398       .  A
C822        C823   1.395   1_655  A
C822        H827   1.085       .  S
C823        C824   1.424       .  A
C823        C830   1.447       .  S
C824       C1753   1.401   1_455  A
C825       C1752   1.401       .  A
C825        C826   1.401       .  A
C825        H828   1.085       .  S
C826        C829   1.444       .  S
C829        N831   1.157       .  T
C830        N832   1.158       .  T
C833        C834   1.410       .  A
C833        C838   1.408       .  A
C834        C835   1.396       .  A
C834        H839   1.083       .  S
C835        C836   1.405       .  A
C835        C842   1.445       .  S
C836        C837   1.412       .  A
C837        C838   1.410       .  A
C837        H840   1.084       .  S
C838        C841   1.442       .  S
C841        N843   1.157       .  T
C842        N844   1.157       .  T
C845        C846   1.400       .  A
C845        C850   1.404       .  A
C846        C847   1.395       .  A
C846        H851   1.085       .  S
C847        C848   1.412       .  A
C847        C854   1.444       .  S
C848        C849   1.405       .  A
C849        C850   1.392       .  A
C849        H852   1.085       .  S
C850        C853   1.442       .  S
C853        N855   1.156       .  T
C854        N856   1.157       .  T
C857        C858   1.411       .  A
C857        C862   1.418       .  A
C858        C859   1.398       .  A
C858        H863   1.084       .  S
C859        C860   1.410       .  A
C859        C866   1.446   1_565  S
C860        C861   1.407       .  A
C861        C862   1.414       .  A
C861        H864   1.084       .  S
C862       C1793   1.442       .  S
C865       C1790   1.442       .  S
C865        N867   1.157       .  T
C866        N868   1.157       .  T
C869        C870   1.408       .  A
C869        C874   1.413       .  A
C870        C871   1.407       .  A
C870        H875   1.084       .  S
C871        C872   1.409       .  A
C871        C878   1.442       .  S
C872        C873   1.402       .  A
C873        C874   1.392       .  A
C873        H876   1.086       .  S
C874        C877   1.446       .  S
C877        N879   1.157       .  T
C878        N880   1.157       .  T
C881        C882   1.398   1_565  A
C881        C886   1.422       .  A
C882        H887   1.085       .  S
C883        C884   1.422       .  A
C883        C890   1.446       .  S
C884        C885   1.401       .  A
C885        H888   1.085       .  S
C886        C889   1.444       .  S
C889        N891   1.157       .  T
C890        N892   1.157       .  T
C893        C894   1.401       .  A
C893        C898   1.421       .  A
C894        C895   1.403       .  A
C894        H899   1.085       .  S
C895        C896   1.421       .  A
C895        C902   1.444       .  S
C896        C897   1.399       .  A
C897        C898   1.390       .  A
C897        H900   1.086       .  S
C898        C901   1.446       .  S
C901        N903   1.158       .  T
C902        N904   1.157       .  T
C905        C906   1.405       .  A
C905        C910   1.409       .  A
C906        C907   1.400       .  A
C906        H911   1.085       .  S
C907        C908   1.418       .  A
C907        C914   1.445   1_455  S
C908        C909   1.413       .  A
C909        C910   1.402       .  A
C909        H912   1.084       .  S
C910        C913   1.445       .  S
C913        N915   1.157       .  T
C914        N916   1.158       .  T
C917        C918   1.401       .  A
C917        C922   1.412       .  A
C918        C919   1.400       .  A
C918        H923   1.084       .  S
C919        C920   1.420       .  A
C919        C926   1.444       .  S
C920        C921   1.409       .  A
C921        C922   1.402       .  A
C921        H924   1.082       .  S
C922        C925   1.446       .  S
C925        N927   1.157       .  T
C926        N928   1.157       .  T
Fe929       O935   2.065       .  S
Fe929       O934   2.067       .  S
Fe929       O940   1.929       .  S
Fe930       O933   2.099       .  S
Fe930       O941   2.104       .  S
Fe930       O946   2.086       .  S
Fe930       O940   1.946       .  S
Fe931       O949   2.033       .  S
Fe931       O936   2.055       .  S
Fe931       O943   2.072       .  S
Fe931       O932   2.053       .  S
Fe931       O940   1.956       .  S
O932        C939   1.263       .  A
O933        C947   1.271       .  A
O934        C939   1.271       .  A
O935        C938   1.272       .  A
O936        C948   1.275       .  A
O937        C950   1.267       .  A
C938        O943   1.272       .  A
C938       C1333   1.478       .  S
C939       C1345   1.488       .  S
O942        C944   1.274       .  A
C944       C1321   1.506       .  S
O945        C950   1.269       .  A
O946        C948   1.277       .  A
C947        O949   1.255       .  A
C947       C1357   1.481       .  S
C948       C1381   1.476       .  S
C950       C1372   1.495       .  S
Fe951       O967   2.090       .  S
Fe951       O957   2.036       .  S
Fe951       O964   2.038       .  S
Fe951       O956   2.097       .  S
Fe951       O962   1.942       .  S
Fe952       O955   2.109       .  S
Fe952       O959   2.054       .  S
Fe952       O963   2.117       .  S
Fe952       O968   2.062       .  S
Fe952       O962   1.949       .  S
Fe953       O971   2.010       .  S
Fe953       O958   2.071       .  S
Fe953       O965   2.080       .  S
Fe953       O954   2.045       .  S
Fe953       O962   1.952       .  S
O954        C961   1.265       .  A
O955        C969   1.281       .  A
O956        C961   1.276       .  A
O957        C960   1.265       .  A
O958        C970   1.270       .  A
O959        C972   1.263       .  A
C960        O965   1.270       .  A
C960       C1309   1.455       .  S
C961       C1300   1.482       .  S
O963        C966   1.283       .  A
O964        C966   1.271       .  A
C966       C1261   1.477       .  S
O967        C972   1.270       .  A
O968        C970   1.269       .  A
C969        O971   1.260       .  A
C969       C1288   1.488       .  S
C970       C1369   1.481       .  S
C972       C1276   1.497       .  S
Fe973       O979   2.022       .  S
Fe973       O978   2.093       .  S
Fe973       O984   1.938       .  S
Fe974       O977   2.119       .  S
Fe974       O990   2.063       .  S
Fe974       O984   1.941       .  S
Fe975       O993   2.029       .  S
Fe975       O980   2.096       .  S
Fe975       O987   2.075       .  S
Fe975       O976   2.050       .  S
Fe975       O984   1.937       .  S
O976        C983   1.265       .  A
O977        C991   1.278       .  A
O978        C983   1.273       .  A
O979        C982   1.263       .  A
O980        C992   1.278       .  A
O981        C994   1.270       .  A
C982        O987   1.271       .  A
C982       C1249   1.443       .  S
C983       C1237   1.478       .  S
O985        C988   1.286       .  A
O986        C988   1.268   1_455  A
C988       C1204   1.491       .  S
O989        C994   1.268       .  A
O990        C992   1.275       .  A
C991        O993   1.259       .  A
C991       C1228   1.475       .  S
C992       C1273   1.500       .  S
C994       C1213   1.499       .  S
Fe995      O1011   2.064       .  S
Fe995      O1001   2.066       .  S
Fe995      O1008   2.063       .  S
Fe995      O1000   2.071       .  S
Fe995      O1006   1.933       .  S
Fe996       O999   2.118       .  S
Fe996      O1003   2.059       .  S
Fe996      O1007   2.106       .  S
Fe996      O1012   2.093       .  S
Fe996      O1006   1.952       .  S
Fe997      O1015   2.030       .  S
Fe997      O1002   2.074       .  S
Fe997      O1009   2.090       .  S
Fe997       O998   2.055       .  S
Fe997      O1006   1.958       .  S
O998       C1005   1.261       .  A
O999       C1013   1.269       .  A
O1000      C1005   1.270       .  A
O1001      C1004   1.275       .  A
O1002      C1014   1.281       .  A
O1003      C1016   1.265       .  A
C1004      O1009   1.279       .  A
C1004      C1165   1.479       .  S
C1005      C1177   1.491       .  S
O1007      C1010   1.282       .  A
O1008      C1010   1.274       .  A
C1010      C1153   1.501       .  S
O1011      C1016   1.268       .  A
O1012      C1014   1.280       .  A
C1013      O1015   1.252       .  A
C1013      C1189   1.484       .  S
C1014      C1216   1.488   1_556  S
C1016      C1384   1.491       .  S
Fe1017     O1497   2.094   1_545  S
Fe1017     O1023   2.017       .  S
Fe1017     O1494   2.032       .  S
Fe1017     O1022   2.088       .  S
Fe1017     O1028   1.937       .  S
Fe1018     O1021   2.126       .  S
Fe1018     O1489   2.071   1_545  S
Fe1018     O1493   2.140   1_545  S
Fe1018     O1034   2.062       .  S
Fe1018     O1028   1.946       .  S
Fe1019     O1037   2.014       .  S
Fe1019     O1024   2.065       .  S
Fe1019     O1031   2.076       .  S
Fe1019     O1020   2.042       .  S
Fe1019     O1028   1.947       .  S
O1020      C1027   1.262       .  A
O1021      C1035   1.282       .  A
O1022      C1027   1.273       .  A
O1023      C1026   1.266       .  A
O1024      C1036   1.271       .  A
O1025     Fe1482   2.071       .  S
O1025      C1038   1.268       .  A
C1026      O1031   1.272       .  A
C1026      C1252   1.463       .  S
C1027      C1192   1.484       .  S
O1029     Fe1482   2.139       .  S
O1029      C1032   1.286       .  A
O1030     Fe1481   2.032       .  S
O1030      C1032   1.269       .  A
C1032      C1324   1.485       .  S
O1033     Fe1481   2.094       .  S
O1033      C1038   1.271       .  A
O1034      C1036   1.272       .  A
C1035      O1037   1.258       .  A
C1035      C1180   1.499       .  S
C1036      C1141   1.480       .  S
C1038      C1129   1.504       .  S
Fe1039     O1055   2.059       .  S
Fe1039     O1045   2.078       .  S
Fe1039     O1052   2.065       .  S
Fe1039     O1044   2.060       .  S
Fe1039     O1050   1.928       .  S
Fe1040     O1043   2.101       .  S
Fe1040     O1047   2.059       .  S
Fe1040     O1051   2.090       .  S
Fe1040     O1056   2.089       .  S
Fe1040     O1050   1.943       .  S
Fe1041     O1059   2.037       .  S
Fe1041     O1046   2.057       .  S
Fe1041     O1053   2.076       .  S
Fe1041     O1042   2.055       .  S
Fe1041     O1050   1.951       .  S
O1042      C1049   1.263       .  A
O1043      C1057   1.271       .  A
O1044      C1049   1.268       .  A
O1045      C1048   1.275       .  A
O1046      C1058   1.275       .  A
O1047      C1060   1.268       .  A
C1048      O1053   1.273       .  A
C1048      C1168   1.485       .  S
C1049      C1360   1.485       .  S
O1051      C1054   1.279       .  A
O1052      C1054   1.274       .  A
C1054      C1264   1.496       .  S
O1055      C1060   1.267       .  A
O1056      C1058   1.278       .  A
C1057      O1059   1.256       .  A
C1057      C1348   1.484       .  S
C1058      C1117   1.476       .  S
C1060      C1144   1.491       .  S
Fe1061     O1541   2.062       .  S
Fe1061     O1067   2.064       .  S
Fe1061     O1538   2.057       .  S
Fe1061     O1066   2.069       .  S
Fe1061     O1072   1.939       .  S
Fe1062     O1065   2.115       .  S
Fe1062     O1533   2.060       .  S
Fe1062     O1537   2.105       .  S
Fe1062     O1078   2.095       .  S
Fe1062     O1072   1.951       .  S
Fe1063     O1081   2.031       .  S
Fe1063     O1068   2.064       .  S
Fe1063     O1075   2.075       .  S
Fe1063     O1064   2.042       .  S
Fe1063     O1072   1.962       .  S
O1064      C1071   1.258       .  A
O1065      C1079   1.270       .  A
O1066      C1071   1.267       .  A
O1067      C1070   1.276       .  A
O1068      C1080   1.278       .  A
O1069     Fe1526   2.060   1_545  S
O1069      C1082   1.266       .  A
C1070      O1075   1.276       .  A
C1070      C1336   1.473       .  S
C1071      C1285   1.483       .  S
O1073     Fe1526   2.105       .  S
O1073      C1076   1.283   1_565  A
O1074     Fe1525   2.057       .  S
O1074      C1076   1.274   1_565  A
C1076      C1201   1.489       .  S
O1077     Fe1525   2.062       .  S
O1077      C1082   1.266   1_565  A
O1078      C1080   1.281       .  A
C1079      O1081   1.253       .  A
C1079      C1297   1.486       .  S
C1080      C1105   1.489       .  S
C1082      C1120   1.492       .  S
Fe1083     O1099   2.074       .  S
Fe1083     O1089   2.030       .  S
Fe1083     O1096   2.032       .  S
Fe1083     O1088   2.066       .  S
Fe1083     O1094   1.947       .  S
Fe1084     O1087   2.117       .  S
Fe1084     O1091   2.064       .  S
Fe1084     O1095   2.145       .  S
Fe1084     O1100   2.070       .  S
Fe1084     O1094   1.944       .  S
Fe1085     O1103   2.024       .  S
Fe1085     O1090   2.103       .  S
Fe1085     O1097   2.093       .  S
Fe1085     O1086   2.069       .  S
Fe1085     O1094   1.955       .  S
O1086      C1093   1.267       .  A
O1087      C1101   1.279       .  A
O1088      C1093   1.265       .  A
O1089      C1092   1.272       .  A
O1090      C1102   1.280       .  A
O1091      C1104   1.262       .  A
C1092      O1097   1.279       .  A
C1092      C1312   1.467       .  S
C1093      C1225   1.498       .  S
O1095      C1098   1.291       .  A
O1096      C1098   1.274       .  A
C1098      C1156   1.486       .  S
O1099      C1104   1.263       .  A
O1100      C1102   1.274       .  A
C1101      O1103   1.261       .  A
C1101      C1240   1.493       .  S
C1102      C1132   1.502   1_554  S
C1104      C1108   1.498       .  S
C1105      C1106   1.405       .  A
C1105      C1110   1.413       .  A
C1106      C1107   1.401       .  A
C1106      H1111   1.085       .  S
C1107      C1108   1.417       .  A
C1107      C1114   1.444       .  S
C1108      C1109   1.411       .  A
C1109      C1110   1.404       .  A
C1109      H1112   1.084       .  S
C1110      C1113   1.445       .  S
C1113      N1115   1.157       .  T
C1114      N1116   1.157       .  T
C1117      C1118   1.401       .  A
C1117      C1122   1.409       .  A
C1118      C1119   1.400       .  A
C1118      H1123   1.085       .  S
C1119      C1120   1.419       .  A
C1119      C1126   1.444       .  S
C1120      C1121   1.410       .  A
C1121      C1122   1.401       .  A
C1121      H1124   1.084       .  S
C1122      C1125   1.444       .  S
C1125      N1127   1.157       .  T
C1126      N1128   1.157       .  T
C1129      C1130   1.408       .  A
C1129      C1134   1.419       .  A
C1130      C1131   1.408       .  A
C1130      H1135   1.084       .  S
C1131      C1132   1.417       .  A
C1131      C1138   1.444       .  S
C1132      C1133   1.407       .  A
C1133      C1134   1.409       .  A
C1133      H1136   1.084   1_556  S
C1134      C1137   1.444       .  S
C1137      N1139   1.157       .  T
C1138      N1140   1.157       .  T
C1141      C1142   1.406       .  A
C1141      C1146   1.409       .  A
C1142      C1143   1.399       .  A
C1142      H1147   1.085       .  S
C1143      C1144   1.417       .  A
C1143      C1150   1.445       .  S
C1144      C1145   1.411       .  A
C1145      C1146   1.398       .  A
C1145      H1148   1.084       .  S
C1146      C1149   1.445       .  S
C1149      N1151   1.157       .  T
C1150      N1152   1.158       .  T
C1153      C1154   1.411   1_556  A
C1153      C1158   1.421       .  A
C1154      C1155   1.413       .  A
C1154      H1159   1.084       .  S
C1155      C1156   1.413       .  A
C1155      C1162   1.443       .  S
C1156      C1157   1.400       .  A
C1157      C1158   1.398   1_554  A
C1157      H1160   1.086       .  S
C1158      C1161   1.445       .  S
C1161      N1163   1.157       .  T
C1162      N1164   1.157       .  T
C1165      C1166   1.403       .  A
C1165      C1170   1.410       .  A
C1166      C1167   1.394       .  A
C1166      H1171   1.086       .  S
C1167      C1168   1.413       .  A
C1167      C1174   1.446       .  S
C1168      C1169   1.410       .  A
C1169      C1170   1.410       .  A
C1169      H1172   1.085       .  S
C1170      C1173   1.442       .  S
C1173      N1175   1.157       .  T
C1174      N1176   1.157       .  T
C1177      C1178   1.397       .  A
C1177      C1182   1.422       .  A
C1178      C1179   1.395       .  A
C1178      H1183   1.084       .  S
C1179      C1180   1.428       .  A
C1179      C1186   1.447       .  S
C1180      C1181   1.404       .  A
C1181      C1182   1.406       .  A
C1181      H1184   1.084       .  S
C1182      C1185   1.444       .  S
C1185      N1187   1.157       .  T
C1186      N1188   1.158       .  T
C1189      C1190   1.409       .  A
C1189      C1194   1.408   1_655  A
C1190      H1195   1.083       .  S
C1191      C1192   1.407       .  A
C1191      C1198   1.445       .  S
C1192      C1193   1.414       .  A
C1193      H1196   1.084       .  S
C1194      C1197   1.443       .  S
C1197      N1199   1.157       .  T
C1198      N1200   1.157       .  T
C1201      C1202   1.404       .  A
C1201      C1206   1.414       .  A
C1202      C1203   1.397       .  A
C1202      H1207   1.085   1_545  S
C1203      C1204   1.417       .  A
C1204      C1205   1.408       .  A
C1205      C1206   1.410       .  A
C1205      H1208   1.084       .  S
C1206      C1209   1.442       .  S
C1209      N1211   1.157       .  T
C1210      N1212   1.157       .  T
C1213      C1214   1.407       .  A
C1213      C1218   1.422       .  A
C1214      C1215   1.403       .  A
C1214      H1219   1.084       .  S
C1215      C1216   1.415       .  A
C1215      C1222   1.445       .  S
C1216      C1217   1.402       .  A
C1217      C1218   1.404       .  A
C1217      H1220   1.085       .  S
C1218      C1221   1.444       .  S
C1221      N1223   1.157       .  T
C1222      N1224   1.157       .  T
C1225      C1226   1.409       .  A
C1225      C1230   1.425       .  A
C1226      C1227   1.412       .  A
C1226      H1231   1.084       .  S
C1227      C1228   1.411       .  A
C1227      C1234   1.442       .  S
C1228      C1229   1.396       .  A
C1229      C1230   1.397       .  A
C1229      H1232   1.086       .  S
C1230      C1233   1.447       .  S
C1233      N1235   1.158       .  T
C1234      N1236   1.157       .  T
C1237      C1238   1.394   1_545  A
C1237      C1242   1.417       .  A
C1238      C1703   1.399       .  A
C1238      H1243   1.085       .  S
C1239      C1702   1.399       .  A
C1239      C1240   1.425       .  A
C1239      C1246   1.444       .  S
C1240      C1241   1.402       .  A
C1241      C1706   1.406       .  A
C1241      H1244   1.084       .  S
C1242      C1705   1.406       .  A
C1242      C1245   1.443       .  S
C1245      N1247   1.157       .  T
C1246      N1248   1.157       .  T
C1249      C1250   1.398       .  A
C1249      C1254   1.403       .  A
C1250      C1251   1.395   1_554  A
C1250      H1255   1.085       .  S
C1251      C1252   1.413       .  A
C1251      C1258   1.443       .  S
C1252      C1253   1.404       .  A
C1253      C1254   1.385   1_556  A
C1253      H1256   1.085       .  S
C1254      C1257   1.445       .  S
C1257      N1259   1.157       .  T
C1258      N1260   1.157       .  T
C1261      C1262   1.404       .  A
C1261      C1266   1.408       .  A
C1262      C1263   1.409       .  A
C1262      H1267   1.085       .  S
C1263      C1264   1.418       .  A
C1263      C1270   1.443       .  S
C1264      C1265   1.410       .  A
C1265      C1266   1.396       .  A
C1265      H1268   1.084       .  S
C1266      C1269   1.446       .  S
C1269      N1271   1.157       .  T
C1270      N1272   1.157       .  T
C1273      C1274   1.408       .  A
C1273      C1278   1.420       .  A
C1274      C1275   1.404       .  A
C1274      H1279   1.084       .  S
C1275      C1276   1.417       .  A
C1275      C1282   1.445       .  S
C1276      C1277   1.406       .  A
C1277      C1278   1.405       .  A
C1277      H1280   1.084       .  S
C1278      C1281   1.444       .  S
C1281      N1283   1.157       .  T
C1282      N1284   1.157       .  T
C1285      C1290   1.421       .  A
C1286      C1287   1.395       .  A
C1286      H1291   1.085       .  S
C1287      C1288   1.424       .  A
C1287      C1294   1.447       .  S
C1289      C1290   1.400       .  A
C1289      H1292   1.085       .  S
C1290      C1293   1.444       .  S
C1293      N1295   1.157       .  T
C1294      N1296   1.158       .  T
C1297      C1298   1.410       .  A
C1297      C1302   1.408       .  A
C1298      C1299   1.396       .  A
C1298      H1303   1.083       .  S
C1299      C1300   1.405       .  A
C1299      C1306   1.445       .  S
C1300      C1301   1.412       .  A
C1301      C1302   1.409       .  A
C1301      H1304   1.084       .  S
C1302      C1305   1.442       .  S
C1305      N1307   1.157       .  T
C1306      N1308   1.157       .  T
C1309      C1310   1.400       .  A
C1309      C1314   1.403       .  A
C1310      C1311   1.396       .  A
C1310      H1315   1.085       .  S
C1311      C1312   1.412       .  A
C1311      C1318   1.444       .  S
C1312      C1313   1.404       .  A
C1313      C1314   1.392       .  A
C1313      H1316   1.085       .  S
C1314      C1317   1.442       .  S
C1317      N1319   1.156       .  T
C1318      N1320   1.157       .  T
C1321      C1322   1.412       .  A
C1321      C1326   1.419       .  A
C1322      C1323   1.399       .  A
C1322      H1327   1.084       .  S
C1323      C1324   1.409       .  A
C1323      C1330   1.446       .  S
C1324      C1325   1.406       .  A
C1325      C1326   1.413       .  A
C1325      H1328   1.084       .  S
C1329      N1331   1.157       .  T
C1330      N1332   1.157       .  T
C1333      C1334   1.407       .  A
C1333      C1338   1.413       .  A
C1334      C1335   1.406       .  A
C1334      H1339   1.084       .  S
C1335      C1336   1.409       .  A
C1335      C1342   1.442       .  S
C1336      C1337   1.402       .  A
C1337      C1338   1.392       .  A
C1337      H1340   1.086       .  S
C1338      C1341   1.446       .  S
C1341      N1343   1.157       .  T
C1342      N1344   1.157       .  T
C1345      C1346   1.398       .  A
C1345      C1350   1.423       .  A
C1346      C1811   1.391       .  A
C1346      H1351   1.085       .  S
C1347      C1810   1.391       .  A
C1347      C1348   1.421       .  A
C1347      C1354   1.446       .  S
C1348      C1349   1.401       .  A
C1349      C1814   1.405   1_545  A
C1349      H1352   1.085       .  S
C1350      C1813   1.405       .  A
C1350      C1353   1.444       .  S
C1353      N1355   1.158       .  T
C1354      N1356   1.157       .  T
C1357      C1358   1.401       .  A
C1357      C1362   1.421       .  A
C1358      C1359   1.404       .  A
C1358      H1363   1.085       .  S
C1359      C1360   1.420       .  A
C1359      C1366   1.444       .  S
C1360      C1361   1.398       .  A
C1361      C1362   1.390       .  A
C1361      H1364   1.086       .  S
C1362      C1365   1.446       .  S
C1365      N1367   1.158       .  T
C1366      N1368   1.157       .  T
C1369      C1370   1.405       .  A
C1369      C1374   1.408       .  A
C1370      C1371   1.400       .  A
C1370      H1375   1.085       .  S
C1371      C1372   1.418       .  A
C1371      C1378   1.445       .  S
C1372      C1373   1.413       .  A
C1373      C1374   1.402       .  A
C1373      H1376   1.084       .  S
C1374      C1377   1.444       .  S
C1377      N1379   1.157       .  T
C1378      N1380   1.158       .  T
C1381      C1382   1.401       .  A
C1381      C1386   1.411       .  A
C1382      C1383   1.400       .  A
C1382      H1387   1.083       .  S
C1383      C1384   1.419       .  A
C1383      C1390   1.444       .  S
C1384      C1385   1.409       .  A
C1385      C1386   1.401       .  A
C1385      H1388   1.081       .  S
C1386      C1389   1.446       .  S
C1389      N1391   1.157       .  T
C1390      N1392   1.157       .  T
Fe1393     O1399   2.064       .  S
Fe1393     O1398   2.067       .  S
Fe1393     O1404   1.929       .  S
Fe1394     O1397   2.099       .  S
Fe1394     O1405   2.104       .  S
Fe1394     O1410   2.087       .  S
Fe1394     O1404   1.946       .  S
Fe1395     O1413   2.033       .  S
Fe1395     O1400   2.056       .  S
Fe1395     O1407   2.072       .  S
Fe1395     O1396   2.053       .  S
Fe1395     O1404   1.956       .  S
O1396      C1403   1.263       .  A
O1397      C1411   1.271       .  A
O1398      C1403   1.271       .  A
O1399      C1402   1.272       .  A
O1400      C1412   1.275       .  A
O1401      C1414   1.267       .  A
C1402      O1407   1.272       .  A
C1402      C1797   1.478       .  S
C1403      C1809   1.488       .  S
O1406      C1408   1.274       .  A
C1408      C1785   1.506       .  S
O1409      C1414   1.269       .  A
O1410      C1412   1.277       .  A
C1411      O1413   1.255       .  A
C1411      C1821   1.481       .  S
C1412      C1845   1.476       .  S
C1414      C1836   1.495       .  S
Fe1415     O1431   2.090       .  S
Fe1415     O1421   2.036       .  S
Fe1415     O1428   2.038       .  S
Fe1415     O1420   2.096       .  S
Fe1415     O1426   1.942       .  S
Fe1416     O1419   2.109       .  S
Fe1416     O1423   2.054       .  S
Fe1416     O1427   2.117       .  S
Fe1416     O1432   2.061       .  S
Fe1416     O1426   1.949       .  S
Fe1417     O1435   2.010       .  S
Fe1417     O1422   2.071       .  S
Fe1417     O1429   2.079       .  S
Fe1417     O1418   2.045       .  S
Fe1417     O1426   1.952       .  S
O1418      C1425   1.265       .  A
O1419      C1433   1.281       .  A
O1420      C1425   1.275       .  A
O1421      C1424   1.265       .  A
O1422      C1434   1.270       .  A
O1423      C1436   1.263       .  A
C1424      O1429   1.270       .  A
C1424      C1773   1.455       .  S
C1425      C1764   1.482       .  S
O1427      C1430   1.283       .  A
O1428      C1430   1.272       .  A
C1430      C1725   1.477       .  S
O1431      C1436   1.270       .  A
O1432      C1434   1.269       .  A
C1433      O1435   1.260       .  A
C1433      C1752   1.488       .  S
C1434      C1833   1.481       .  S
C1436      C1740   1.497       .  S
Fe1437     O1443   2.022       .  S
Fe1437     O1442   2.093       .  S
Fe1437     O1448   1.938       .  S
Fe1438     O1441   2.119       .  S
Fe1438     O1454   2.063       .  S
Fe1438     O1448   1.941       .  S
Fe1439     O1457   2.029       .  S
Fe1439     O1444   2.095       .  S
Fe1439     O1451   2.075       .  S
Fe1439     O1440   2.050       .  S
Fe1439     O1448   1.937       .  S
O1440      C1447   1.265       .  A
O1441      C1455   1.278       .  A
O1442      C1447   1.273       .  A
O1443      C1446   1.263       .  A
O1444      C1456   1.278       .  A
O1445      C1458   1.270       .  A
C1446      O1451   1.271       .  A
C1446      C1713   1.443       .  S
C1447      C1701   1.478       .  S
O1449      C1452   1.286       .  A
O1450      C1452   1.268   1_455  A
C1452      C1668   1.492       .  S
O1453      C1458   1.269       .  A
O1454      C1456   1.275       .  A
C1455      O1457   1.259       .  A
C1455      C1692   1.475       .  S
C1456      C1737   1.500       .  S
C1458      C1677   1.499       .  S
Fe1459     O1475   2.064       .  S
Fe1459     O1465   2.066       .  S
Fe1459     O1472   2.063       .  S
Fe1459     O1464   2.071       .  S
Fe1459     O1470   1.933       .  S
Fe1460     O1463   2.117       .  S
Fe1460     O1467   2.059       .  S
Fe1460     O1471   2.106       .  S
Fe1460     O1476   2.093       .  S
Fe1460     O1470   1.952       .  S
Fe1461     O1479   2.030       .  S
Fe1461     O1466   2.074       .  S
Fe1461     O1473   2.091       .  S
Fe1461     O1462   2.055       .  S
Fe1461     O1470   1.958       .  S
O1462      C1469   1.261       .  A
O1463      C1477   1.269       .  A
O1464      C1469   1.270       .  A
O1465      C1468   1.275       .  A
O1466      C1478   1.281       .  A
O1467      C1480   1.265       .  A
C1468      O1473   1.279       .  A
C1468      C1629   1.480       .  S
C1469      C1641   1.491       .  S
O1471      C1474   1.282       .  A
O1472      C1474   1.274       .  A
C1474      C1617   1.500       .  S
O1475      C1480   1.268       .  A
O1476      C1478   1.280       .  A
C1477      O1479   1.252       .  A
C1477      C1653   1.484       .  S
C1478      C1680   1.489   1_556  S
C1480      C1848   1.492       .  S
Fe1481     O1487   2.016       .  S
Fe1481     O1486   2.088       .  S
Fe1481     O1492   1.938       .  S
Fe1482     O1485   2.125       .  S
Fe1482     O1498   2.062       .  S
Fe1482     O1492   1.946       .  S
Fe1483     O1501   2.014       .  S
Fe1483     O1488   2.065       .  S
Fe1483     O1495   2.076       .  S
Fe1483     O1484   2.042       .  S
Fe1483     O1492   1.948       .  S
O1484      C1491   1.262       .  A
O1485      C1499   1.282       .  A
O1486      C1491   1.273       .  A
O1487      C1490   1.266       .  A
O1488      C1500   1.271       .  A
O1489      C1502   1.268       .  A
C1490      O1495   1.272       .  A
C1490      C1716   1.463       .  S
C1491      C1656   1.484       .  S
O1493      C1496   1.286       .  A
O1494      C1496   1.269   1_545  A
C1496      C1788   1.485       .  S
O1497      C1502   1.271       .  A
O1498      C1500   1.272       .  A
C1499      O1501   1.259       .  A
C1499      C1644   1.498       .  S
C1500      C1605   1.480       .  S
C1502      C1593   1.504       .  S
Fe1503     O1519   2.059       .  S
Fe1503     O1509   2.078       .  S
Fe1503     O1516   2.065       .  S
Fe1503     O1508   2.060       .  S
Fe1503     O1514   1.928       .  S
Fe1504     O1507   2.101       .  S
Fe1504     O1511   2.060       .  S
Fe1504     O1515   2.090       .  S
Fe1504     O1520   2.089       .  S
Fe1504     O1514   1.943       .  S
Fe1505     O1523   2.037       .  S
Fe1505     O1510   2.057       .  S
Fe1505     O1517   2.076       .  S
Fe1505     O1506   2.055       .  S
Fe1505     O1514   1.951       .  S
O1506      C1513   1.263       .  A
O1507      C1521   1.271       .  A
O1508      C1513   1.268       .  A
O1509      C1512   1.275       .  A
O1510      C1522   1.275       .  A
O1511      C1524   1.268       .  A
C1512      O1517   1.273       .  A
C1512      C1632   1.485       .  S
C1513      C1824   1.485       .  S
O1515      C1518   1.279       .  A
O1516      C1518   1.274       .  A
C1518      C1728   1.496       .  S
O1519      C1524   1.267       .  A
O1520      C1522   1.278       .  A
C1521      O1523   1.256       .  A
C1521      C1812   1.484       .  S
C1522      C1581   1.476       .  S
C1524      C1608   1.491       .  S
Fe1525     O1531   2.064       .  S
Fe1525     O1530   2.069       .  S
Fe1525     O1536   1.939       .  S
Fe1526     O1529   2.115       .  S
Fe1526     O1542   2.095       .  S
Fe1526     O1536   1.951       .  S
Fe1527     O1545   2.031       .  S
Fe1527     O1532   2.064       .  S
Fe1527     O1539   2.075       .  S
Fe1527     O1528   2.042       .  S
Fe1527     O1536   1.962       .  S
O1528      C1535   1.258       .  A
O1529      C1543   1.270       .  A
O1530      C1535   1.267       .  A
O1531      C1534   1.276       .  A
O1532      C1544   1.277       .  A
O1533      C1546   1.266       .  A
C1534      O1539   1.276       .  A
C1534      C1800   1.473       .  S
C1535      C1749   1.484       .  S
O1537      C1540   1.283       .  A
O1538      C1540   1.274       .  A
C1540      C1665   1.489       .  S
O1541      C1546   1.266       .  A
O1542      C1544   1.281       .  A
C1543      O1545   1.253       .  A
C1543      C1761   1.486       .  S
C1544      C1569   1.489       .  S
C1546      C1584   1.493       .  S
Fe1547     O1563   2.074       .  S
Fe1547     O1553   2.030       .  S
Fe1547     O1560   2.032       .  S
Fe1547     O1552   2.066       .  S
Fe1547     O1558   1.947       .  S
Fe1548     O1551   2.116       .  S
Fe1548     O1555   2.064       .  S
Fe1548     O1559   2.145       .  S
Fe1548     O1564   2.069       .  S
Fe1548     O1558   1.944       .  S
Fe1549     O1567   2.025       .  S
Fe1549     O1554   2.104       .  S
Fe1549     O1561   2.094       .  S
Fe1549     O1550   2.069       .  S
Fe1549     O1558   1.955       .  S
O1550      C1557   1.267       .  A
O1551      C1565   1.279       .  A
O1552      C1557   1.265       .  A
O1553      C1556   1.272       .  A
O1554      C1566   1.280       .  A
O1555      C1568   1.261       .  A
C1556      O1561   1.279       .  A
C1556      C1776   1.467       .  S
C1557      C1689   1.498       .  S
O1559      C1562   1.291       .  A
O1560      C1562   1.274       .  A
C1562      C1620   1.486       .  S
O1563      C1568   1.263       .  A
O1564      C1566   1.273       .  A
C1565      O1567   1.261       .  A
C1565      C1704   1.493       .  S
C1566      C1596   1.501   1_554  S
C1568      C1572   1.498       .  S
C1569      C1570   1.405       .  A
C1569      C1574   1.413       .  A
C1570      C1571   1.401       .  A
C1570      H1575   1.085       .  S
C1571      C1572   1.417       .  A
C1571      C1578   1.444       .  S
C1572      C1573   1.410       .  A
C1573      C1574   1.404       .  A
C1573      H1576   1.084       .  S
C1574      C1577   1.445       .  S
C1577      N1579   1.157       .  T
C1578      N1580   1.157       .  T
C1581      C1582   1.401       .  A
C1581      C1586   1.409       .  A
C1582      C1583   1.400       .  A
C1582      H1587   1.085       .  S
C1583      C1584   1.419       .  A
C1583      C1590   1.444       .  S
C1584      C1585   1.410       .  A
C1585      C1586   1.401       .  A
C1585      H1588   1.084       .  S
C1586      C1589   1.444       .  S
C1589      N1591   1.157       .  T
C1590      N1592   1.157       .  T
C1593      C1594   1.408       .  A
C1593      C1598   1.419       .  A
C1594      C1595   1.408       .  A
C1594      H1599   1.084       .  S
C1595      C1596   1.417       .  A
C1595      C1602   1.444       .  S
C1596      C1597   1.407       .  A
C1597      C1598   1.409       .  A
C1597      H1600   1.084   1_556  S
C1598      C1601   1.444       .  S
C1601      N1603   1.157       .  T
C1602      N1604   1.157       .  T
C1605      C1606   1.406       .  A
C1605      C1610   1.409       .  A
C1606      C1607   1.399       .  A
C1606      H1611   1.085       .  S
C1607      C1608   1.417       .  A
C1607      C1614   1.445       .  S
C1608      C1609   1.411       .  A
C1609      C1610   1.398       .  A
C1609      H1612   1.084       .  S
C1610      C1613   1.445       .  S
C1613      N1615   1.157       .  T
C1614      N1616   1.158       .  T
C1617      C1618   1.411   1_556  A
C1617      C1622   1.421       .  A
C1618      C1619   1.413       .  A
C1618      H1623   1.084       .  S
C1619      C1620   1.413       .  A
C1619      C1626   1.443       .  S
C1620      C1621   1.400       .  A
C1621      C1622   1.398   1_554  A
C1621      H1624   1.086       .  S
C1622      C1625   1.445       .  S
C1625      N1627   1.157       .  T
C1626      N1628   1.157       .  T
C1629      C1630   1.403       .  A
C1629      C1634   1.410       .  A
C1630      C1631   1.395       .  A
C1630      H1635   1.086       .  S
C1631      C1632   1.413       .  A
C1631      C1638   1.446       .  S
C1632      C1633   1.410       .  A
C1633      C1634   1.410       .  A
C1633      H1636   1.085       .  S
C1634      C1637   1.442       .  S
C1637      N1639   1.157       .  T
C1638      N1640   1.157       .  T
C1641      C1642   1.397       .  A
C1641      C1646   1.422       .  A
C1642      C1643   1.395       .  A
C1642      H1647   1.083       .  S
C1643      C1644   1.428       .  A
C1643      C1650   1.447       .  S
C1644      C1645   1.404       .  A
C1645      C1646   1.406       .  A
C1645      H1648   1.084       .  S
C1646      C1649   1.444       .  S
C1649      N1651   1.157       .  T
C1650      N1652   1.158       .  T
C1653      C1654   1.409       .  A
C1653      C1658   1.407   1_655  A
C1654      H1659   1.083       .  S
C1655      C1656   1.407       .  A
C1655      C1662   1.445       .  S
C1656      C1657   1.414       .  A
C1657      H1660   1.084       .  S
C1658      C1661   1.443       .  S
C1661      N1663   1.157       .  T
C1662      N1664   1.157       .  T
C1665      C1666   1.404       .  A
C1665      C1670   1.414       .  A
C1666      C1667   1.397       .  A
C1666      H1671   1.085       .  S
C1667      C1668   1.417       .  A
C1668      C1669   1.408       .  A
C1669      C1670   1.410       .  A
C1669      H1672   1.084       .  S
C1670      C1673   1.442       .  S
C1673      N1675   1.157       .  T
C1674      N1676   1.157       .  T
C1677      C1678   1.407       .  A
C1677      C1682   1.422       .  A
C1678      C1679   1.403       .  A
C1678      H1683   1.084       .  S
C1679      C1680   1.415       .  A
C1679      C1686   1.445       .  S
C1680      C1681   1.402       .  A
C1681      C1682   1.404       .  A
C1681      H1684   1.085       .  S
C1682      C1685   1.444       .  S
C1685      N1687   1.157       .  T
C1686      N1688   1.157       .  T
C1689      C1690   1.409       .  A
C1689      C1694   1.425       .  A
C1690      C1691   1.412       .  A
C1690      H1695   1.084       .  S
C1691      C1692   1.411       .  A
C1691      C1698   1.442       .  S
C1692      C1693   1.396       .  A
C1693      C1694   1.397       .  A
C1693      H1696   1.086       .  S
C1694      C1697   1.447       .  S
C1697      N1699   1.158       .  T
C1698      N1700   1.157       .  T
C1701      C1702   1.394       .  A
C1701      C1706   1.417       .  A
C1702      H1707   1.085       .  S
C1703      C1704   1.424       .  A
C1703      C1710   1.444       .  S
C1704      C1705   1.402   1_565  A
C1705      H1708   1.084       .  S
C1706      C1709   1.443       .  S
C1709      N1711   1.157       .  T
C1710      N1712   1.157       .  T
C1713      C1714   1.398       .  A
C1713      C1718   1.403       .  A
C1714      C1715   1.395   1_554  A
C1714      H1719   1.085       .  S
C1715      C1716   1.413       .  A
C1715      C1722   1.443       .  S
C1716      C1717   1.404       .  A
C1717      C1718   1.384   1_556  A
C1717      H1720   1.085       .  S
C1718      C1721   1.445       .  S
C1721      N1723   1.157       .  T
C1722      N1724   1.157       .  T
C1725      C1726   1.404       .  A
C1725      C1730   1.408       .  A
C1726      C1727   1.409       .  A
C1726      H1731   1.085       .  S
C1727      C1728   1.418       .  A
C1727      C1734   1.443       .  S
C1728      C1729   1.410       .  A
C1729      C1730   1.396       .  A
C1729      H1732   1.084       .  S
C1730      C1733   1.446       .  S
C1733      N1735   1.157       .  T
C1734      N1736   1.157       .  T
C1737      C1738   1.408       .  A
C1737      C1742   1.420       .  A
C1738      C1739   1.404       .  A
C1738      H1743   1.084       .  S
C1739      C1740   1.417       .  A
C1739      C1746   1.445       .  S
C1740      C1741   1.406       .  A
C1741      C1742   1.405       .  A
C1741      H1744   1.084       .  S
C1742      C1745   1.444       .  S
C1745      N1747   1.157       .  T
C1746      N1748   1.157       .  T
C1749      C1754   1.421       .  A
C1750      C1751   1.395       .  A
C1750      H1755   1.085       .  S
C1751      C1752   1.424       .  A
C1751      C1758   1.447       .  S
C1753      C1754   1.400       .  A
C1753      H1756   1.085       .  S
C1754      C1757   1.444       .  S
C1757      N1759   1.157       .  T
C1758      N1760   1.158       .  T
C1761      C1762   1.410       .  A
C1761      C1766   1.408       .  A
C1762      C1763   1.396       .  A
C1762      H1767   1.083       .  S
C1763      C1764   1.405       .  A
C1763      C1770   1.445       .  S
C1764      C1765   1.412       .  A
C1765      C1766   1.409       .  A
C1765      H1768   1.084       .  S
C1766      C1769   1.442       .  S
C1769      N1771   1.157       .  T
C1770      N1772   1.157       .  T
C1773      C1774   1.400       .  A
C1773      C1778   1.403       .  A
C1774      C1775   1.396       .  A
C1774      H1779   1.085       .  S
C1775      C1776   1.412       .  A
C1775      C1782   1.444       .  S
C1776      C1777   1.404       .  A
C1777      C1778   1.392       .  A
C1777      H1780   1.085       .  S
C1778      C1781   1.442       .  S
C1781      N1783   1.156       .  T
C1782      N1784   1.157       .  T
C1785      C1786   1.412       .  A
C1785      C1790   1.419       .  A
C1786      C1787   1.399       .  A
C1786      H1791   1.084       .  S
C1787      C1788   1.409       .  A
C1787      C1794   1.446   1_565  S
C1788      C1789   1.406       .  A
C1789      C1790   1.413       .  A
C1789      H1792   1.084       .  S
C1793      N1795   1.157       .  T
C1794      N1796   1.157       .  T
C1797      C1798   1.408       .  A
C1797      C1802   1.413       .  A
C1798      C1799   1.406       .  A
C1798      H1803   1.084       .  S
C1799      C1800   1.409       .  A
C1799      C1806   1.442       .  S
C1800      C1801   1.402       .  A
C1801      C1802   1.392       .  A
C1801      H1804   1.086       .  S
C1802      C1805   1.446       .  S
C1805      N1807   1.157       .  T
C1806      N1808   1.157       .  T
C1809      C1810   1.398   1_565  A
C1809      C1814   1.423       .  A
C1810      H1815   1.085       .  S
C1811      C1812   1.422       .  A
C1811      C1818   1.446       .  S
C1812      C1813   1.401       .  A
C1813      H1816   1.085       .  S
C1814      C1817   1.444       .  S
C1817      N1819   1.158       .  T
C1818      N1820   1.157       .  T
C1821      C1822   1.401       .  A
C1821      C1826   1.421       .  A
C1822      C1823   1.404       .  A
C1822      H1827   1.085       .  S
C1823      C1824   1.420       .  A
C1823      C1830   1.444       .  S
C1824      C1825   1.398       .  A
C1825      C1826   1.390       .  A
C1825      H1828   1.086       .  S
C1826      C1829   1.446       .  S
C1829      N1831   1.158       .  T
C1830      N1832   1.157       .  T
C1833      C1834   1.405       .  A
C1833      C1838   1.408       .  A
C1834      C1835   1.400       .  A
C1834      H1839   1.085       .  S
C1835      C1836   1.418       .  A
C1835      C1842   1.445       .  S
C1836      C1837   1.412       .  A
C1837      C1838   1.402       .  A
C1837      H1840   1.084       .  S
C1838      C1841   1.444       .  S
C1841      N1843   1.157       .  T
C1842      N1844   1.158       .  T
C1845      C1846   1.401       .  A
C1845      C1850   1.411       .  A
C1846      C1847   1.400       .  A
C1846      H1851   1.083       .  S
C1847      C1848   1.419       .  A
C1847      C1854   1.444       .  S
C1848      C1849   1.409       .  A
C1849      C1850   1.401       .  A
C1849      H1852   1.081       .  S
C1850      C1853   1.445       .  S
C1853      N1855   1.157       .  T
C1854      N1856   1.157       .  T
