geometry optimzed in LAMMPS
_audit_creation_date              2020-11-30 
_audit_creation_method            'lammps2cif' 
_symmetry_space_group_name_H-M    'P1' 
_symmetry_Int_Tables_number       1 
_symmetry_cell_setting            triclinic 
loop_ 
_symmetry_equiv_pos_as_xyz 
  x,y,z 
_cell_length_a                    39.7494422 
_cell_length_b                    39.74258785093613 
_cell_length_c                    34.67750694123369 
_cell_angle_alpha                 90.00984550879296 
_cell_angle_beta                  89.989350480019 
_cell_angle_gamma                 120.23190608742333 
loop_ 
_atom_site_label 
_atom_site_type_symbol 
_atom_site_fract_x 
_atom_site_fract_y 
_atom_site_fract_z 
_atom_site_charge 
O1          O  0.14936540  0.59070398  0.37162079    -0.53000
C2          C  0.13633275  0.59876078  0.48617876     0.79600
O3          O  0.16393027  0.70312865  0.42600770    -0.54200
C4          C  0.14855141  0.60651420  0.34029564     0.79600
C5          C  0.05381375  0.60703082  0.41205632     0.82000
Cd6        Cd  0.13527470  0.63220944  0.41391603     1.37500
O7          O  0.14778027  0.58977832  0.45585521    -0.53000
O8          O  0.06637571  0.58391981  0.41770516    -0.51800
C9          C  0.19747893  0.70867327  0.43369466     0.81900
O10         O  0.07881198  0.64243716  0.40588685    -0.54200
O11         O  0.12410195  0.62240760  0.48292522    -0.52700
O12         O  0.14300417  0.63513587  0.34264099    -0.52700
O13         O  0.20287004  0.68023112  0.42901020    -0.51800
O14         O  0.40984993  0.85112677  0.04015511    -0.53000
C15         C  0.40203718  0.86457404  0.42564374     0.79600
O16         O  0.29764377  0.83688627  0.48564171    -0.54200
C17         C  0.39417215  0.85211175  0.07151237     0.79600
C18         C  0.39363454  0.94693283  0.49996795     0.82000
Cd19       Cd  0.36850368  0.86547928  0.49793529     1.37500
O20         O  0.41106844  0.85317168  0.45595812    -0.53000
O21         O  0.41676807  0.93439686  0.99432330    -0.51800
C22         C  0.29205838  0.80328749  0.47810408     0.81900
O23         O  0.35822967  0.92190874  0.50608519    -0.54200
O24         O  0.37830932  0.87669974  0.42891721    -0.52700
O25         O  0.36567725  0.85785589  0.06922138    -0.52700
O26         O  0.32044096  0.79784501  0.48297168    -0.51800
O27         O  0.42548947  0.84939409  0.20671169    -0.53000
C28         C  0.44727318  0.86450528  0.32079502     0.79600
O29         O  0.52533359  0.83800971  0.25996949    -0.54200
C30         C  0.44255602  0.85189247  0.17519786     0.79600
C31         C  0.53809821  0.94718981  0.24639974     0.82000
Cd32       Cd  0.48202382  0.86549385  0.24861643     1.37500
O33         O  0.42673201  0.85227959  0.29056003    -0.53000
O34         O  0.50219056  0.93424853  0.25148943    -0.51800
C35         C  0.49762118  0.80423406  0.26787647     0.81900
O36         O  0.54883049  0.92247107  0.24095026    -0.54200
O37         O  0.48335740  0.87742220  0.31751294    -0.52700
O38         O  0.47735207  0.85909981  0.17725523    -0.52700
O39         O  0.46347504  0.79824095  0.26380436    -0.51800
O40         O  0.42630481  0.59121043  0.37248822    -0.53000
C41         C  0.44724294  0.59924248  0.25816802     0.79600
O42         O  0.52578257  0.70374261  0.31780691    -0.54200
C43         C  0.44312643  0.60640827  0.40396261     0.79600
C44         C  0.53852559  0.60761332  0.33232801     0.82000
Cd45       Cd  0.48245071  0.63284955  0.33036218     1.37500
O46         O  0.42685037  0.59086149  0.28851152    -0.53000
O47         O  0.50284067  0.58467941  0.32572616    -0.51800
C48         C  0.49798079  0.70976404  0.31094867     0.81900
O49         O  0.54903504  0.64285312  0.33929445    -0.54200
O50         O  0.48339781  0.62240321  0.26134033    -0.52700
O51         O  0.47762892  0.63480668  0.40180355    -0.52700
O52         O  0.46390281  0.68161403  0.31619369    -0.51800
O53         O  0.40934192  0.57442027  0.03914912    -0.53000
C54         C  0.40139950  0.55344813  0.15349391     0.79600
O55         O  0.29689932  0.47477327  0.09367454    -0.54200
C56         C  0.39421121  0.55754310  0.00767625     0.79600
C57         C  0.39319865  0.46226770  0.07930466     0.82000
Cd58       Cd  0.36781277  0.51823465  0.08128863     1.37500
O59         O  0.40978058  0.57384964  0.12315877    -0.53000
O60         O  0.41610085  0.49798798  0.08579706    -0.51800
C61         C  0.29082810  0.50252738  0.10066409     0.81900
O62         O  0.35792499  0.45167329  0.07246702    -0.54200
O63         O  0.37823095  0.51729000  0.15031193    -0.52700
O64         O  0.36588060  0.52300239  0.00984387    -0.52700
O65         O  0.31896804  0.53664549  0.09557650    -0.51800
O66         O  0.14904945  0.57411736  0.12116346    -0.53000
C67         C  0.14881804  0.55819221  0.23655931     0.79600
O68         O  0.07823367  0.45196381  0.17100853    -0.54200
C69         C  0.13636907  0.55351344  0.09100317     0.79600
C70         C  0.19637363  0.50287488  0.14374668     0.82000
Cd71       Cd  0.13527598  0.51869812  0.16314497     1.37500
O72         O  0.15120848  0.57521947  0.20505178    -0.53000
O73         O  0.20243507  0.53705671  0.14776487    -0.51800
C74         C  0.05356320  0.46272888  0.16542139     0.81900
O75         O  0.16260061  0.47522073  0.15175854    -0.54200
O76         O  0.14175897  0.52344028  0.23449210    -0.52700
O77         O  0.12293384  0.51733977  0.09435224    -0.52700
O78         O  0.06655934  0.49862728  0.16014568    -0.51800
O79         O  0.58086040  0.43707266  0.28899164    -0.53000
C80         C  0.58876468  0.45799190  0.40334289     0.79600
O81         O  0.69330547  0.53666226  0.34353646    -0.54200
C82         C  0.59602009  0.45394917  0.25752708     0.79600
C83         C  0.59703708  0.54922814  0.32923228     0.82000
Cd84       Cd  0.62238890  0.49323303  0.33115656     1.37500
O85         O  0.58039847  0.43760162  0.37299684    -0.53000
O86         O  0.57411354  0.51349886  0.33565492    -0.51800
C87         C  0.69934970  0.50889503  0.35053839     0.81900
O88         O  0.63231761  0.55981960  0.32242729    -0.54200
O89         O  0.61193236  0.49415154  0.40017949    -0.52700
O90         O  0.62436351  0.48848221  0.25970938    -0.52700
O91         O  0.67119575  0.47478354  0.34545652    -0.51800
O92         O  0.83885964  0.43611034  0.45495304    -0.53000
C93         C  0.85379336  0.45789248  0.34091476     0.79600
O94         O  0.82751436  0.53614174  0.40171023    -0.54200
C95         C  0.84120197  0.45311626  0.48646801     0.79600
C96         C  0.93653161  0.54861424  0.41546436     0.82000
Cd97       Cd  0.85482013  0.49265241  0.41308363     1.37500
O98         O  0.84106350  0.43726294  0.37105128    -0.53000
O99         O  0.92354157  0.51271553  0.41018810    -0.51800
C100        C  0.79374979  0.50849525  0.39366079     0.81900
O101        O  0.91185371  0.55938153  0.42100087    -0.54200
O102        O  0.86725590  0.49406795  0.34430095    -0.52700
O103        O  0.84823678  0.48786043  0.48441866    -0.52700
O104        O  0.78767981  0.47430905  0.39765600    -0.51800
O105        O  0.84066729  0.42062564  0.12151389    -0.53000
C106        C  0.85382386  0.41266132  0.23606126     0.79600
O107        O  0.82617120  0.30825697  0.17584292    -0.54200
C108        C  0.84149833  0.40482067  0.09018499     0.79600
C109        C  0.93628896  0.40433602  0.16191070     0.82000
Cd110      Cd  0.85483398  0.37917799  0.16379115     1.37500
O111        O  0.84240201  0.42166726  0.20574335    -0.53000
O112        O  0.92373747  0.42746225  0.16752910    -0.51800
C113        C  0.79263670  0.30272477  0.18359122     0.81900
O114        O  0.91128351  0.36892651  0.15576633    -0.54200
O115        O  0.86600645  0.38897524  0.23279825    -0.52700
O116        O  0.84709531  0.37623102  0.09252044    -0.52700
O117        O  0.78725431  0.33117711  0.17896254    -0.51800
O118        O  0.58028212  0.16024081  0.29012188    -0.53000
C119        C  0.58809680  0.14679922  0.17559872     0.79600
O120        O  0.69250825  0.17453056  0.23559504    -0.54200
C121        C  0.59599670  0.15930745  0.32146615     0.79600
C122        C  0.59652668  0.06446696  0.24992061     0.82000
Cd123      Cd  0.62164208  0.14591550  0.24787431     1.37500
O124        O  0.57906577  0.15820367  0.20592017    -0.53000
O125        O  0.57338400  0.07699434  0.24430678    -0.51800
C126        C  0.69807184  0.20811138  0.22801418     0.81900
O127        O  0.63193661  0.08949873  0.25599457    -0.54200
O128        O  0.61182710  0.13467629  0.17885843    -0.52700
O129        O  0.62451998  0.15360852  0.31915356    -0.52700
O130        O  0.66967240  0.21353620  0.23284774    -0.51800
O131        O  0.56341407  0.15908066  0.04052576    -0.53000
C132        C  0.54761204  0.15951351  0.42517202     0.79600
O133        O  0.44132962  0.08892458  0.49095523    -0.54200
C134        C  0.54287309  0.14688727  0.07076741     0.79600
C135        C  0.49254024  0.20717329  0.01784403     0.79600
Cd136      Cd  0.50813669  0.14590585  0.99859605     1.37500
O137        O  0.56468939  0.16205340  0.45668298    -0.53000
O138        O  0.52668637  0.21316110  0.01377982    -0.51800
C139        C  0.45206526  0.06420893  0.49639418     0.81900
O140        O  0.46482764  0.17339623  0.00994111    -0.54200
O141        O  0.51279947  0.15225664  0.42723494    -0.52700
O142        O  0.50679630  0.13401219  0.06749654    -0.52700
O143        O  0.48797532  0.07715343  0.50145933    -0.51800
O144        O  0.56333492  0.42061928  0.03835526    -0.53000
C145        C  0.54711948  0.40507124  0.15381775     0.79600
O146        O  0.44119856  0.36864054  0.08922030    -0.54200
C147        C  0.54293214  0.41219071  0.00802047     0.79600
C148        C  0.49220845  0.30168520  0.06085858     0.82000
Cd149      Cd  0.50776781  0.37861836  0.08024128     1.37500
O150        O  0.56395239  0.42022263  0.12233331    -0.53000
O151        O  0.52629345  0.32983860  0.06605535    -0.51800
C152        C  0.45171726  0.40388335  0.08226889     0.81900
O153        O  0.46441582  0.30771683  0.06774596    -0.54200
O154        O  0.51259611  0.37670996  0.15167797    -0.52700
O155        O  0.50678560  0.38899405  0.01121167    -0.52700
O156        O  0.48740095  0.42680756  0.07564539    -0.51800
C157        C  0.48616833  0.23738466  0.03234395    -0.08500
C158        C  0.48604754  0.26517904  0.04621914    -0.10000
C159        C  0.57233506  0.14755580  0.13882629    -0.08500
C160        C  0.55950707  0.14759759  0.10746445    -0.10000
C161        C  0.56649984  0.16321526  0.38866210    -0.08500
C162        C  0.58109081  0.16312844  0.35808457    -0.10000
C163        C  0.73433837  0.23866387  0.21295099    -0.08500
C164        C  0.76209162  0.26643164  0.19861668    -0.10000
C165        C  0.85302127  0.44124668  0.30420378    -0.08500
C166        C  0.85303918  0.42841410  0.27283396    -0.10000
C167        C  0.83753636  0.43423972  0.02297216    -0.08500
C168        C  0.83765995  0.41968648  0.05355663    -0.10000
C169        C  0.73586719  0.51511029  0.36518422    -0.08500
C170        C  0.76363468  0.51497409  0.37909298    -0.10000
C171        C  0.57283149  0.44111081  0.44002070    -0.08500
C172        C  0.55979099  0.42808471  0.47132533    -0.10000
C173        C  0.56598032  0.42038602  0.19037916    -0.08500
C174        C  0.58072739  0.43512443  0.22094427    -0.10000
C175        C  0.97734335  0.41842083  0.16291813    -0.08500
C176        C  0.01240481  0.43589539  0.16456890    -0.10000
C177        C  0.42486726  0.41800353  0.08153118    -0.08500
C178        C  0.40737372  0.43546004  0.08006241    -0.10000
C179        C  0.22650898  0.49641059  0.12919490    -0.08500
C180        C  0.25429466  0.49629106  0.11529938    -0.10000
C181        C  0.58287743  0.57604826  0.33003611    -0.08500
C182        C  0.56538580  0.59350589  0.33154677    -0.10000
C183        C  0.41732120  0.57031561  0.19017879    -0.08500
C184        C  0.43036494  0.58333883  0.22148284    -0.10000
C185        C  0.42427440  0.59110667  0.44053333    -0.08500
C186        C  0.40952195  0.57637354  0.47109943    -0.10000
C187        C  0.56497383  0.98834229  0.24730315    -0.08500
C188        C  0.58245978  0.02340878  0.24896157    -0.10000
C189        C  0.50399371  0.77403225  0.28239290    -0.08500
C190        C  0.50412305  0.74625269  0.29628603    -0.10000
C191        C  0.42519070  0.02305678  0.49731623    -0.08500
C192        C  0.40770515  0.98799131  0.49899312    -0.10000
C193        C  0.41779887  0.86381656  0.38886459    -0.08500
C194        C  0.43063116  0.86378263  0.35749746    -0.10000
C195        C  0.40908553  0.84829316  0.10812065    -0.08500
C196        C  0.42367534  0.84820039  0.13869120    -0.10000
C197        C  0.01275546  0.59293099  0.41304651    -0.08500
C198        C  0.97769173  0.57544755  0.41466364    -0.10000
C199        C  0.22803062  0.74496721  0.44871695    -0.08500
C200        C  0.25578819  0.77273447  0.46304753    -0.10000
C201        C  0.13713702  0.58302048  0.02294622    -0.08500
C202        C  0.13715808  0.57018287  0.05430753    -0.10000
C203        C  0.15246961  0.57705989  0.27307291    -0.08500
C204        C  0.15235818  0.59162291  0.30366135    -0.10000
O205        O  0.14936535  0.59070396  0.87162087    -0.53000
C206        C  0.13633270  0.59876072  0.98617885     0.79600
O207        O  0.16393023  0.70312868  0.92600779    -0.54200
C208        C  0.14855142  0.60651421  0.84029562     0.79600
C209        C  0.05381374  0.60703083  0.91205627     0.82000
Cd210      Cd  0.13527465  0.63220944  0.91391603     1.37500
O211        O  0.14778032  0.58977837  0.95585521    -0.53000
O212        O  0.06637573  0.58391985  0.91770535    -0.51800
C213        C  0.19747887  0.70867325  0.93369471     0.81900
O214        O  0.07881194  0.64243718  0.90588674    -0.54200
O215        O  0.12410195  0.62240760  0.98292533    -0.52700
O216        O  0.14300414  0.63513587  0.84264092    -0.52700
O217        O  0.20287004  0.68023116  0.92901003    -0.51800
O218        O  0.40984992  0.85112672  0.54015512    -0.53000
C219        C  0.40203707  0.86457399  0.92564374     0.79600
O220        O  0.29764371  0.83688620  0.98564172    -0.54200
C221        C  0.39417227  0.85211182  0.57151245     0.79600
C222        C  0.39363460  0.94693284  0.99996780     0.82000
Cd223      Cd  0.36850364  0.86547932  0.99793528     1.37500
O224        O  0.41106838  0.85317175  0.95595815    -0.53000
O225        O  0.41676801  0.93439692  0.49432340    -0.51800
C226        C  0.29205837  0.80328749  0.97810398     0.81900
O227        O  0.35822973  0.92190884  0.00608503    -0.54200
O228        O  0.37830922  0.87669977  0.92891725    -0.52700
O229        O  0.36567721  0.85785579  0.56922138    -0.52700
O230        O  0.32044096  0.79784501  0.98297172    -0.51800
O231        O  0.42548947  0.84939408  0.70671153    -0.53000
C232        C  0.44727311  0.86450518  0.82079501     0.79600
O233        O  0.52533362  0.83800973  0.75996938    -0.54200
C234        C  0.44255605  0.85189249  0.67519771     0.79600
C235        C  0.53809816  0.94718983  0.74639988     0.82000
Cd236      Cd  0.48202380  0.86549387  0.74861641     1.37500
O237        O  0.42673195  0.85227958  0.79056008    -0.53000
O238        O  0.50219048  0.93424854  0.75148944    -0.51800
C239        C  0.49762123  0.80423406  0.76787641     0.81900
O240        O  0.54883043  0.92247110  0.74095027    -0.54200
O241        O  0.48335729  0.87742211  0.81751291    -0.52700
O242        O  0.47735218  0.85909990  0.67725514    -0.52700
O243        O  0.46347517  0.79824097  0.76380433    -0.51800
O244        O  0.42630488  0.59121036  0.87248824    -0.53000
C245        C  0.44724301  0.59924251  0.75816815     0.79600
O246        O  0.52578278  0.70374267  0.81780692    -0.54200
C247        C  0.44312646  0.60640826  0.90396257     0.79600
C248        C  0.53852566  0.60761330  0.83232829     0.82000
Cd249      Cd  0.48245081  0.63284958  0.83036228     1.37500
O250        O  0.42685055  0.59086168  0.78851164    -0.53000
O251        O  0.50284080  0.58467948  0.82572630    -0.51800
C252        C  0.49798094  0.70976408  0.81094870     0.81900
O253        O  0.54903523  0.64285313  0.83929462    -0.54200
O254        O  0.48339786  0.62240313  0.76134036    -0.52700
O255        O  0.47762889  0.63480675  0.90180368    -0.52700
O256        O  0.46390302  0.68161413  0.81619396    -0.51800
O257        O  0.40934183  0.57442019  0.53914904    -0.53000
C258        C  0.40139946  0.55344815  0.65349388     0.79600
O259        O  0.29689944  0.47477325  0.59367464    -0.54200
C260        C  0.39421117  0.55754302  0.50767616     0.79600
C261        C  0.39319864  0.46226772  0.57930480     0.82000
Cd262      Cd  0.36781276  0.51823466  0.58128866     1.37500
O263        O  0.40978073  0.57384968  0.62315872    -0.53000
O264        O  0.41610082  0.49798801  0.58579705    -0.51800
C265        C  0.29082810  0.50252727  0.60066403     0.81900
O266        O  0.35792506  0.45167333  0.57246705    -0.54200
O267        O  0.37823089  0.51729004  0.65031193    -0.52700
O268        O  0.36588044  0.52300228  0.50984376    -0.52700
O269        O  0.31896792  0.53664535  0.59557642    -0.51800
O270        O  0.14904946  0.57411740  0.62116351    -0.53000
C271        C  0.14881803  0.55819224  0.73655943     0.79600
O272        O  0.07823364  0.45196372  0.67100855    -0.54200
C273        C  0.13636902  0.55351339  0.59100337     0.79600
C274        C  0.19637359  0.50287482  0.64374684     0.82000
Cd275      Cd  0.13527604  0.51869812  0.66314499     1.37500
O276        O  0.15120848  0.57521944  0.70505191    -0.53000
O277        O  0.20243505  0.53705663  0.64776488    -0.51800
C278        C  0.05356325  0.46272884  0.66542144     0.81900
O279        O  0.16260063  0.47522064  0.65175876    -0.54200
O280        O  0.14175895  0.52344028  0.73449218    -0.52700
O281        O  0.12293389  0.51733980  0.59435240    -0.52700
O282        O  0.06655939  0.49862721  0.66014564    -0.51800
O283        O  0.58086027  0.43707261  0.78899159    -0.53000
C284        C  0.58876466  0.45799194  0.90334284     0.79600
O285        O  0.69330544  0.53666229  0.84353639    -0.54200
C286        C  0.59601998  0.45394914  0.75752706     0.79600
C287        C  0.59703716  0.54922818  0.82923223     0.82000
Cd288      Cd  0.62238889  0.49323303  0.83115656     1.37500
O289        O  0.58039857  0.43760153  0.87299688    -0.53000
O290        O  0.57411359  0.51349891  0.83565482    -0.51800
C291        C  0.69934961  0.50889504  0.85053839     0.81900
O292        O  0.63231771  0.55981969  0.82242718    -0.54200
O293        O  0.61193232  0.49415156  0.90017944    -0.52700
O294        O  0.62436343  0.48848217  0.75970932    -0.52700
O295        O  0.67119571  0.47478356  0.84545643    -0.51800
O296        O  0.83885978  0.43611040  0.95495288    -0.53000
C297        C  0.85379327  0.45789247  0.84091456     0.79600
O298        O  0.82751426  0.53614174  0.90171042    -0.54200
C299        C  0.84120203  0.45311626  0.98646792     0.79600
C300        C  0.93653162  0.54861425  0.91546425     0.82000
Cd301      Cd  0.85482012  0.49265245  0.91308358     1.37500
O302        O  0.84106345  0.43726298  0.87105116    -0.53000
O303        O  0.92354161  0.51271554  0.91018798    -0.51800
C304        C  0.79374982  0.50849525  0.89366079     0.81900
O305        O  0.91185371  0.55938151  0.92100078    -0.54200
O306        O  0.86725586  0.49406801  0.84430084    -0.52700
O307        O  0.84823665  0.48786036  0.98441852    -0.52700
O308        O  0.78767977  0.47430905  0.89765586    -0.51800
O309        O  0.84066726  0.42062575  0.62151409    -0.53000
C310        C  0.85382383  0.41266134  0.73606135     0.79600
O311        O  0.82617118  0.30825704  0.67584295    -0.54200
C312        C  0.84149830  0.40482075  0.59018512     0.79600
C313        C  0.93628890  0.40433602  0.66191064     0.82000
Cd314      Cd  0.85483399  0.37917797  0.66379117     1.37500
O315        O  0.84240209  0.42166736  0.70574327    -0.53000
O316        O  0.92373739  0.42746228  0.66752913    -0.51800
C317        C  0.79263669  0.30272481  0.68359123     0.81900
O318        O  0.91128343  0.36892649  0.65576635    -0.54200
O319        O  0.86600644  0.38897523  0.73279830    -0.52700
O320        O  0.84709527  0.37623116  0.59252053    -0.52700
O321        O  0.78725421  0.33117703  0.67896242    -0.51800
O322        O  0.58028218  0.16024083  0.79012171    -0.53000
C323        C  0.58809673  0.14679921  0.67559880     0.79600
O324        O  0.69250825  0.17453061  0.73559500    -0.54200
C325        C  0.59599676  0.15930745  0.82146602     0.79600
C326        C  0.59652666  0.06446695  0.74992055     0.82000
Cd327      Cd  0.62164211  0.14591550  0.74787431     1.37500
O328        O  0.57906579  0.15820367  0.70592035    -0.53000
O329        O  0.57338398  0.07699439  0.74430695    -0.51800
C330        C  0.69807177  0.20811139  0.72801417     0.81900
O331        O  0.63193661  0.08949866  0.75599447    -0.54200
O332        O  0.61182708  0.13467632  0.67885851    -0.52700
O333        O  0.62452001  0.15360858  0.81915351    -0.52700
O334        O  0.66967226  0.21353618  0.73284775    -0.51800
O335        O  0.56341420  0.15908070  0.54052595    -0.53000
C336        C  0.54761205  0.15951353  0.92517210     0.79600
O337        O  0.44132969  0.08892450  0.99095517    -0.54200
C338        C  0.54287312  0.14688727  0.57076748     0.79600
C339        C  0.49254016  0.20717333  0.51784406     0.79600
Cd340      Cd  0.50813669  0.14590584  0.49859611     1.37500
O341        O  0.56468943  0.16205344  0.95668298    -0.53000
O342        O  0.52668625  0.21316114  0.51377973    -0.51800
C343        C  0.45206540  0.06420892  0.99639407     0.81900
O344        O  0.46482756  0.17339613  0.50994125    -0.54200
O345        O  0.51279941  0.15225660  0.92723493    -0.52700
O346        O  0.50679634  0.13401218  0.56749657    -0.52700
O347        O  0.48797551  0.07715352  0.00145948    -0.51800
O348        O  0.56333493  0.42061930  0.53835525    -0.53000
C349        C  0.54711957  0.40507128  0.65381774     0.79600
O350        O  0.44119861  0.36864058  0.58922023    -0.54200
C351        C  0.54293213  0.41219070  0.50802041     0.79600
C352        C  0.49220840  0.30168517  0.56085837     0.82000
Cd353      Cd  0.50776781  0.37861839  0.58024121     1.37500
O354        O  0.56395246  0.42022262  0.62233326    -0.53000
O355        O  0.52629339  0.32983858  0.56605531    -0.51800
C356        C  0.45171726  0.40388337  0.58226881     0.81900
O357        O  0.46441575  0.30771681  0.56774594    -0.54200
O358        O  0.51259620  0.37670997  0.65167789    -0.52700
O359        O  0.50678556  0.38899408  0.51121154    -0.52700
O360        O  0.48740095  0.42680763  0.57564533    -0.51800
C361        C  0.48616830  0.23738467  0.53234393    -0.08500
C362        C  0.48604752  0.26517907  0.54621912    -0.10000
C363        C  0.57233502  0.14755589  0.63882640    -0.08500
C364        C  0.55950717  0.14759769  0.60746450    -0.10000
C365        C  0.56650010  0.16321529  0.88866223    -0.08500
C366        C  0.58109087  0.16312847  0.85808468    -0.10000
C367        C  0.73433826  0.23866389  0.71295092    -0.08500
C368        C  0.76209151  0.26643163  0.69861678    -0.10000
C369        C  0.85302127  0.44124669  0.80420378    -0.08500
C370        C  0.85303925  0.42841407  0.77283394    -0.10000
C371        C  0.83753646  0.43423972  0.52297224    -0.08500
C372        C  0.83765991  0.41968654  0.55355672    -0.10000
C373        C  0.73586714  0.51511025  0.86518415    -0.08500
C374        C  0.76363457  0.51497406  0.87909313    -0.10000
C375        C  0.57283164  0.44111087  0.94002064    -0.08500
C376        C  0.55979114  0.42808481  0.97132528    -0.10000
C377        C  0.56598042  0.42038606  0.69037914    -0.08500
C378        C  0.58072733  0.43512443  0.72094433    -0.10000
C379        C  0.97734330  0.41842075  0.66291827    -0.08500
C380        C  0.01240464  0.43589523  0.66456897    -0.10000
C381        C  0.42486734  0.41800357  0.58153104    -0.08500
C382        C  0.40737377  0.43546005  0.58006239    -0.10000
C383        C  0.22650890  0.49641051  0.62919489    -0.08500
C384        C  0.25429461  0.49629087  0.61529956    -0.10000
C385        C  0.58287760  0.57604832  0.83003612    -0.08500
C386        C  0.56538598  0.59350592  0.83154676    -0.10000
C387        C  0.41732127  0.57031563  0.69017874    -0.08500
C388        C  0.43036501  0.58333887  0.72148279    -0.10000
C389        C  0.42427431  0.59110663  0.94053332    -0.08500
C390        C  0.40952197  0.57637361  0.97109945    -0.10000
C391        C  0.56497375  0.98834230  0.74730317    -0.08500
C392        C  0.58245969  0.02340878  0.74896158    -0.10000
C393        C  0.50399364  0.77403222  0.78239300    -0.08500
C394        C  0.50412314  0.74625268  0.79628604    -0.10000
C395        C  0.42519080  0.02305679  0.99731627    -0.08500
C396        C  0.40770517  0.98799131  0.99899304    -0.10000
C397        C  0.41779876  0.86381640  0.88886472    -0.08500
C398        C  0.43063108  0.86378259  0.85749743    -0.10000
C399        C  0.40908541  0.84829309  0.60812050    -0.08500
C400        C  0.42367540  0.84820036  0.63869121    -0.10000
C401        C  0.01275553  0.59293107  0.91304653    -0.08500
C402        C  0.97769179  0.57544756  0.91466354    -0.10000
C403        C  0.22803060  0.74496717  0.94871707    -0.08500
C404        C  0.25578806  0.77273443  0.96304750    -0.10000
C405        C  0.13713701  0.58302036  0.52294625    -0.08500
C406        C  0.13715803  0.57018286  0.55430757    -0.10000
C407        C  0.15246965  0.57706002  0.77307284    -0.08500
C408        C  0.15235811  0.59162305  0.80366144    -0.10000
loop_ 
_geom_bond_atom_site_label_1 
_geom_bond_atom_site_label_2 
_geom_bond_distance 
_geom_bond_site_symmetry_2 
_ccdc_geom_bond_type 
O1            C4   1.264       .  A
O1           Cd6   2.473       .  S
C2           O11   1.262       .  A
C2            O7   1.266       .  A
C2          C405   1.428       .  S
O3            C9   1.266       .  A
O3           Cd6   2.487       .  S
C4           O12   1.266       .  A
C4          C204   1.441       .  S
C5           O10   1.267       .  A
C5            O8   1.262       .  A
C5          C197   1.435       .  S
Cd6          O13   2.444       .  S
Cd6          O12   2.486       .  S
Cd6          O11   2.429       .  S
Cd6           O7   2.460       .  S
Cd6          O10   2.490       .  S
Cd6           O8   2.431       .  S
C9           O13   1.262       .  A
C9          C199   1.436       .  S
O14          C17   1.264       .  A
O14        Cd223   2.473   1_554  S
C15          O24   1.262       .  A
C15          O20   1.266       .  A
C15         C193   1.428       .  S
O16          C22   1.266       .  A
O16         Cd19   2.487       .  S
C17          O25   1.266       .  A
C17         C195   1.441       .  S
C18          O23   1.267       .  A
C18         O225   1.262       .  A
C18         C192   1.434       .  S
Cd19         O26   2.444       .  S
Cd19         O24   2.430       .  S
Cd19         O20   2.460       .  S
Cd19         O23   2.490       .  S
Cd19        O218   2.473       .  S
Cd19        O229   2.486       .  S
Cd19        O225   2.430       .  S
O21         C222   1.262       .  A
O21        Cd223   2.430       .  S
C22          O26   1.263       .  A
C22         C200   1.436       .  S
O25        Cd223   2.486   1_554  S
O27          C30   1.263       .  A
O27         Cd32   2.475       .  S
C28          O37   1.262       .  A
C28          O33   1.266       .  A
C28         C194   1.428       .  S
O29          C35   1.265       .  A
O29         Cd32   2.491       .  S
C30          O38   1.265       .  A
C30         C196   1.441       .  S
C31          O36   1.267       .  A
C31          O34   1.262       .  A
C31         C187   1.434       .  S
Cd32         O39   2.446       .  S
Cd32         O38   2.485       .  S
Cd32         O37   2.431       .  S
Cd32         O33   2.461       .  S
Cd32         O36   2.489       .  S
Cd32         O34   2.432       .  S
C35          O39   1.262       .  A
C35         C189   1.437       .  S
O40          C43   1.264       .  A
O40         Cd45   2.477       .  S
C41          O50   1.262       .  A
C41          O46   1.266       .  A
C41         C184   1.429       .  S
O42          C48   1.266       .  A
O42         Cd45   2.492       .  S
C43          O51   1.266       .  A
C43         C185   1.442       .  S
C44          O49   1.267       .  A
C44          O47   1.262       .  A
C44         C182   1.435       .  S
Cd45         O52   2.445       .  S
Cd45         O51   2.489       .  S
Cd45         O50   2.433       .  S
Cd45         O46   2.462       .  S
Cd45         O49   2.490       .  S
Cd45         O47   2.431       .  S
C48          O52   1.262       .  A
C48         C190   1.437       .  S
O53          C56   1.264       .  A
O53         Cd58   2.477       .  S
C54          O63   1.262       .  A
C54          O59   1.266       .  A
C54         C183   1.429       .  S
O55          C61   1.266       .  A
O55         Cd58   2.492       .  S
C56          O64   1.266       .  A
C56         C390   1.442   1_554  S
C57          O62   1.267       .  A
C57          O60   1.262       .  A
C57         C178   1.434       .  S
Cd58         O65   2.446       .  S
Cd58         O64   2.489       .  S
Cd58         O63   2.433       .  S
Cd58         O59   2.462       .  S
Cd58         O62   2.490       .  S
Cd58         O60   2.431       .  S
C61          O65   1.262       .  A
C61         C180   1.437       .  S
O66          C69   1.266       .  A
O66         Cd71   2.461       .  S
C67          O76   1.265       .  A
C67          O72   1.263       .  A
C67         C203   1.441       .  S
O68          C74   1.267       .  A
O68         Cd71   2.489       .  S
C69          O77   1.262       .  A
C69         C202   1.428       .  S
C70          O75   1.266       .  A
C70          O73   1.262       .  A
C70         C179   1.437       .  S
Cd71         O78   2.432       .  S
Cd71         O77   2.431       .  S
Cd71         O76   2.485       .  S
Cd71         O72   2.475       .  S
Cd71         O75   2.492       .  S
Cd71         O73   2.446       .  S
C74          O78   1.262       .  A
C74         C176   1.435       .  S
O79          C82   1.264       .  A
O79         Cd84   2.477       .  S
C80          O89   1.262       .  A
C80          O85   1.266       .  A
C80         C171   1.429       .  S
O81          C87   1.266       .  A
O81         Cd84   2.492       .  S
C82          O90   1.266       .  A
C82         C174   1.442       .  S
C83          O88   1.267       .  A
C83          O86   1.262       .  A
C83         C181   1.435       .  S
Cd84         O91   2.445       .  S
Cd84         O90   2.489       .  S
Cd84         O89   2.433       .  S
Cd84         O85   2.462       .  S
Cd84         O88   2.490       .  S
Cd84         O86   2.431       .  S
C87          O91   1.262       .  A
C87         C169   1.437       .  S
O92          C95   1.263       .  A
O92         Cd97   2.475       .  S
C93         O102   1.262       .  A
C93          O98   1.266       .  A
C93         C165   1.428       .  S
O94         C100   1.266       .  A
O94         Cd97   2.492       .  S
C95         O103   1.265       .  A
C95         C371   1.441       .  S
C96         O101   1.267       .  A
C96          O99   1.262       .  A
C96         C198   1.435       .  S
Cd97        O104   2.446       .  S
Cd97        O103   2.485       .  S
Cd97        O102   2.431       .  S
Cd97         O98   2.461       .  S
Cd97        O101   2.489       .  S
Cd97         O99   2.432       .  S
C100        O104   1.262       .  A
C100        C170   1.437       .  S
O105        C108   1.264       .  A
O105       Cd110   2.473       .  S
C106        O115   1.262       .  A
C106        O111   1.266       .  A
C106        C166   1.428       .  S
O107        C113   1.266       .  A
O107       Cd110   2.487       .  S
C108        O116   1.266       .  A
C108        C168   1.441       .  S
C109        O114   1.267       .  A
C109        O112   1.262       .  A
C109        C175   1.434       .  S
Cd110       O117   2.444       .  S
Cd110       O116   2.486       .  S
Cd110       O115   2.429       .  S
Cd110       O111   2.460       .  S
Cd110       O114   2.490       .  S
Cd110       O112   2.431       .  S
C113        O117   1.262       .  A
C113        C164   1.436       .  S
O118        C121   1.264       .  A
O118       Cd123   2.473       .  S
C119        O128   1.262       .  A
C119        O124   1.266       .  A
C119        C159   1.428       .  S
O120        C126   1.266       .  A
O120       Cd123   2.487       .  S
C121        O129   1.266       .  A
C121        C162   1.441       .  S
C122        O127   1.267       .  A
C122        O125   1.262       .  A
C122        C188   1.434       .  S
Cd123       O130   2.444       .  S
Cd123       O129   2.486       .  S
Cd123       O128   2.430       .  S
Cd123       O124   2.460       .  S
Cd123       O127   2.490       .  S
Cd123       O125   2.430       .  S
C126        O130   1.262       .  A
C126        C163   1.436       .  S
O131        C134   1.266       .  A
O131       Cd136   2.461   1_554  S
C132        O141   1.265       .  A
C132        O137   1.263       .  A
C132        C161   1.441       .  S
O133        C139   1.267       .  A
O133       Cd340   2.489       .  S
C134        O142   1.262       .  A
C134        C160   1.428       .  S
C135        O140   1.265       .  A
C135        O138   1.262       .  A
C135        C157   1.437       .  S
Cd136       O142   2.431   1_556  S
Cd136       O140   2.491   1_556  S
Cd136       O138   2.445   1_556  S
Cd136       O337   2.489       .  S
Cd136       O347   2.432   1_556  S
Cd136       O345   2.485       .  S
Cd136       O341   2.475       .  S
O137       Cd340   2.475       .  S
C139        O143   1.262       .  A
C139        C191   1.434       .  S
O141       Cd340   2.485       .  S
O143       Cd340   2.432       .  S
O144        C147   1.266       .  A
O144       Cd149   2.462       .  S
C145        O154   1.266       .  A
C145        O150   1.264       .  A
C145        C173   1.442       .  S
O146        C152   1.267       .  A
O146       Cd149   2.490       .  S
C147        O155   1.262       .  A
C147        C376   1.429   1_554  S
C148        O153   1.266       .  A
C148        O151   1.262       .  A
C148        C158   1.437       .  S
Cd149       O156   2.431       .  S
Cd149       O155   2.433       .  S
Cd149       O154   2.489       .  S
Cd149       O150   2.477       .  S
Cd149       O153   2.491       .  S
Cd149       O151   2.445       .  S
C152        O156   1.262       .  A
C152        C177   1.434       .  S
C157        C158   1.207       .  T
C159        C160   1.202       .  T
C161        C162   1.209       .  T
C163        C164   1.207       .  T
C165        C166   1.202       .  T
C167        C299   1.441   1_554  S
C167        C168   1.209       .  T
C169        C170   1.207       .  T
C171        C172   1.202       .  T
C172        C351   1.429       .  S
C173        C174   1.210       .  T
C175        C176   1.206   1_655  T
C177        C178   1.206       .  T
C179        C180   1.207       .  T
C181        C182   1.206       .  T
C183        C184   1.202       .  T
C185        C186   1.210       .  T
C186        C260   1.442       .  S
C187        C188   1.205   1_565  T
C189        C190   1.207       .  T
C191        C192   1.205   1_545  T
C193        C194   1.202       .  T
C195        C196   1.209       .  T
C197        C198   1.206   1_455  T
C199        C200   1.207       .  T
C201        C206   1.428   1_554  S
C201        C202   1.202       .  T
C203        C204   1.209       .  T
O205        C208   1.264       .  A
O205       Cd210   2.473       .  S
C206        O215   1.262       .  A
C206        O211   1.266       .  A
O207        C213   1.266       .  A
O207       Cd210   2.487       .  S
C208        O216   1.266       .  A
C208        C408   1.441       .  S
C209        O214   1.267       .  A
C209        O212   1.262       .  A
C209        C401   1.435       .  S
Cd210       O217   2.444       .  S
Cd210       O216   2.486       .  S
Cd210       O215   2.429       .  S
Cd210       O211   2.460       .  S
Cd210       O214   2.490       .  S
Cd210       O212   2.431       .  S
C213        O217   1.262       .  A
C213        C403   1.436       .  S
O218        C221   1.264       .  A
C219        O228   1.262       .  A
C219        O224   1.266       .  A
C219        C397   1.428       .  S
O220        C226   1.266       .  A
O220       Cd223   2.487       .  S
C221        O229   1.266       .  A
C221        C399   1.441       .  S
C222        O227   1.267   1_556  A
C222        C396   1.434       .  S
Cd223       O230   2.444       .  S
Cd223       O228   2.430       .  S
Cd223       O224   2.460       .  S
Cd223       O227   2.490   1_556  S
C226        O230   1.263       .  A
C226        C404   1.436       .  S
O231        C234   1.263       .  A
O231       Cd236   2.475       .  S
C232        O241   1.262       .  A
C232        O237   1.266       .  A
C232        C398   1.428       .  S
O233        C239   1.265       .  A
O233       Cd236   2.491       .  S
C234        O242   1.265       .  A
C234        C400   1.441       .  S
C235        O240   1.267       .  A
C235        O238   1.262       .  A
C235        C391   1.434       .  S
Cd236       O243   2.446       .  S
Cd236       O242   2.485       .  S
Cd236       O241   2.431       .  S
Cd236       O237   2.461       .  S
Cd236       O240   2.489       .  S
Cd236       O238   2.432       .  S
C239        O243   1.262       .  A
C239        C393   1.437       .  S
O244        C247   1.264       .  A
O244       Cd249   2.477       .  S
C245        O254   1.262       .  A
C245        O250   1.266       .  A
C245        C388   1.429       .  S
O246        C252   1.266       .  A
O246       Cd249   2.492       .  S
C247        O255   1.266       .  A
C247        C389   1.442       .  S
C248        O253   1.267       .  A
C248        O251   1.262       .  A
C248        C386   1.435       .  S
Cd249       O256   2.445       .  S
Cd249       O255   2.489       .  S
Cd249       O254   2.433       .  S
Cd249       O250   2.462       .  S
Cd249       O253   2.490       .  S
Cd249       O251   2.431       .  S
C252        O256   1.262       .  A
C252        C394   1.437       .  S
O257        C260   1.264       .  A
O257       Cd262   2.477       .  S
C258        O267   1.262       .  A
C258        O263   1.266       .  A
C258        C387   1.429       .  S
O259        C265   1.266       .  A
O259       Cd262   2.492       .  S
C260        O268   1.266       .  A
C261        O266   1.267       .  A
C261        O264   1.262       .  A
C261        C382   1.434       .  S
Cd262       O269   2.446       .  S
Cd262       O268   2.489       .  S
Cd262       O267   2.433       .  S
Cd262       O263   2.462       .  S
Cd262       O266   2.490       .  S
Cd262       O264   2.431       .  S
C265        O269   1.262       .  A
C265        C384   1.437       .  S
O270        C273   1.266       .  A
O270       Cd275   2.461       .  S
C271        O280   1.265       .  A
C271        O276   1.263       .  A
C271        C407   1.441       .  S
O272        C278   1.267       .  A
O272       Cd275   2.489       .  S
C273        O281   1.262       .  A
C273        C406   1.428       .  S
C274        O279   1.266       .  A
C274        O277   1.262       .  A
C274        C383   1.437       .  S
Cd275       O282   2.432       .  S
Cd275       O281   2.431       .  S
Cd275       O280   2.485       .  S
Cd275       O276   2.475       .  S
Cd275       O279   2.492       .  S
Cd275       O277   2.446       .  S
C278        O282   1.262       .  A
C278        C380   1.435       .  S
O283        C286   1.264       .  A
O283       Cd288   2.477       .  S
C284        O293   1.262       .  A
C284        O289   1.266       .  A
C284        C375   1.429       .  S
O285        C291   1.266       .  A
O285       Cd288   2.492       .  S
C286        O294   1.266       .  A
C286        C378   1.442       .  S
C287        O292   1.267       .  A
C287        O290   1.262       .  A
C287        C385   1.435       .  S
Cd288       O295   2.445       .  S
Cd288       O294   2.489       .  S
Cd288       O293   2.433       .  S
Cd288       O289   2.462       .  S
Cd288       O292   2.490       .  S
Cd288       O290   2.431       .  S
C291        O295   1.262       .  A
C291        C373   1.437       .  S
O296        C299   1.263       .  A
O296       Cd301   2.475       .  S
C297        O306   1.262       .  A
C297        O302   1.266       .  A
C297        C369   1.428       .  S
O298        C304   1.266       .  A
O298       Cd301   2.492       .  S
C299        O307   1.265       .  A
C300        O305   1.267       .  A
C300        O303   1.262       .  A
C300        C402   1.435       .  S
Cd301       O308   2.446       .  S
Cd301       O307   2.485       .  S
Cd301       O306   2.431       .  S
Cd301       O302   2.461       .  S
Cd301       O305   2.489       .  S
Cd301       O303   2.432       .  S
C304        O308   1.262       .  A
C304        C374   1.437       .  S
O309        C312   1.264       .  A
O309       Cd314   2.473       .  S
C310        O319   1.262       .  A
C310        O315   1.266       .  A
C310        C370   1.428       .  S
O311        C317   1.266       .  A
O311       Cd314   2.487       .  S
C312        O320   1.266       .  A
C312        C372   1.441       .  S
C313        O318   1.267       .  A
C313        O316   1.262       .  A
C313        C379   1.434       .  S
Cd314       O321   2.444       .  S
Cd314       O320   2.486       .  S
Cd314       O319   2.429       .  S
Cd314       O315   2.460       .  S
Cd314       O318   2.490       .  S
Cd314       O316   2.431       .  S
C317        O321   1.262       .  A
C317        C368   1.436       .  S
O322        C325   1.264       .  A
O322       Cd327   2.473       .  S
C323        O332   1.262       .  A
C323        O328   1.266       .  A
C323        C363   1.428       .  S
O324        C330   1.266       .  A
O324       Cd327   2.487       .  S
C325        O333   1.266       .  A
C325        C366   1.441       .  S
C326        O331   1.267       .  A
C326        O329   1.262       .  A
C326        C392   1.434       .  S
Cd327       O334   2.444       .  S
Cd327       O333   2.486       .  S
Cd327       O332   2.430       .  S
Cd327       O328   2.460       .  S
Cd327       O331   2.490       .  S
Cd327       O329   2.430       .  S
C330        O334   1.263       .  A
C330        C367   1.436       .  S
O335        C338   1.266       .  A
O335       Cd340   2.461       .  S
C336        O345   1.265       .  A
C336        O341   1.263       .  A
C336        C365   1.441       .  S
O337        C343   1.267       .  A
C338        O346   1.262       .  A
C338        C364   1.428       .  S
C339        O344   1.265       .  A
C339        O342   1.262       .  A
C339        C361   1.437       .  S
Cd340       O346   2.431       .  S
Cd340       O344   2.491       .  S
Cd340       O342   2.445       .  S
C343        O347   1.262   1_556  A
C343        C395   1.434       .  S
O348        C351   1.266       .  A
O348       Cd353   2.462       .  S
C349        O358   1.266       .  A
C349        O354   1.264       .  A
C349        C377   1.442       .  S
O350        C356   1.267       .  A
O350       Cd353   2.490       .  S
C351        O359   1.262       .  A
C352        O357   1.266       .  A
C352        O355   1.262       .  A
C352        C362   1.437       .  S
Cd353       O360   2.431       .  S
Cd353       O359   2.433       .  S
Cd353       O358   2.489       .  S
Cd353       O354   2.477       .  S
Cd353       O357   2.491       .  S
Cd353       O355   2.445       .  S
C356        O360   1.262       .  A
C356        C381   1.434       .  S
C361        C362   1.207       .  T
C363        C364   1.202       .  T
C365        C366   1.209       .  T
C367        C368   1.207       .  T
C369        C370   1.202       .  T
C371        C372   1.209       .  T
C373        C374   1.207       .  T
C375        C376   1.202       .  T
C377        C378   1.210       .  T
C379        C380   1.206   1_655  T
C381        C382   1.206       .  T
C383        C384   1.207       .  T
C385        C386   1.206       .  T
C387        C388   1.202       .  T
C389        C390   1.210       .  T
C391        C392   1.205   1_565  T
C393        C394   1.207       .  T
C395        C396   1.205   1_545  T
C397        C398   1.202       .  T
C399        C400   1.209       .  T
C401        C402   1.206   1_455  T
C403        C404   1.207       .  T
C405        C406   1.202       .  T
C407        C408   1.209       .  T
