geometry optimzed in LAMMPS
_audit_creation_date              2020-11-30 
_audit_creation_method            'lammps2cif' 
_symmetry_space_group_name_H-M    'P1' 
_symmetry_Int_Tables_number       1 
_symmetry_cell_setting            triclinic 
loop_ 
_symmetry_equiv_pos_as_xyz 
  x,y,z 
_cell_length_a                    26.752571305371298 
_cell_length_b                    26.75350054776511 
_cell_length_c                    43.085178977538725 
_cell_angle_alpha                 89.99420809052737 
_cell_angle_beta                  90.00865455595638 
_cell_angle_gamma                 90.00002094790578 
loop_ 
_atom_site_label 
_atom_site_type_symbol 
_atom_site_fract_x 
_atom_site_fract_y 
_atom_site_fract_z 
_atom_site_charge 
O1          O  0.11811299  0.05883143  0.30960618    -0.86790
O2          O  0.12013721  0.47891447  0.35425433    -0.83840
C3          C  0.13343585  0.99931984  0.37888554     0.96670
O4          O  0.10836195  0.03473139  0.39006291    -0.83870
O5          O  0.03423228  0.10882572  0.39008809    -0.86510
C6          C  0.99886043  0.13393241  0.37887858     1.01200
O7          O  0.47850138  0.12067511  0.35422268    -0.79280
O8          O  0.05833899  0.11856733  0.30954590    -0.79460
C9          C  0.10509469  0.10557190  0.30817467     1.01150
O10         O  0.04636608  0.49011699  0.27863545    -0.86790
O11         O  0.03140212  0.43896822  0.33264075    -0.83850
C12         C  0.02064684  0.43117637  0.36105769     0.96690
O13         O  0.03197949  0.46209650  0.38213898    -0.83880
O14         O  0.46162751  0.03244627  0.38216650    -0.86480
C15         C  0.43068042  0.02115074  0.36109235     1.01160
O16         O  0.43844270  0.03193676  0.33267788    -0.79300
O17         O  0.48951026  0.04672262  0.27867815    -0.79450
C18         C  0.50986800  0.51035169  0.26598076     1.01130
Cr19       Cr  0.07565911  0.49674337  0.32045319     1.93740
Cr20       Cr  0.03471591  0.03518951  0.38254573     1.93210
Cr21       Cr  0.49623323  0.07614313  0.32044640     1.39100
O22         O  0.03632092  0.03681770  0.34113789    -1.24540
O23         O  0.13287308  0.19310021  0.30954459    -0.86790
O24         O  0.13077014  0.27294012  0.35422035    -0.83840
C25         C  0.11751556  0.25258628  0.37887702     0.96670
O26         O  0.14262242  0.21721573  0.39008666    -0.83870
O27         O  0.21671792  0.14308536  0.39006053    -0.86510
C28         C  0.25212844  0.11800909  0.37888283     1.01200
O29         O  0.27253297  0.13130504  0.35425147    -0.79280
O30         O  0.19261159  0.13332907  0.30960343    -0.79460
C31         C  0.14586915  0.14634617  0.30817356     1.01150
O32         O  0.20471600  0.26192816  0.27867684    -0.86790
O33         O  0.21950659  0.31299715  0.33267617    -0.83850
C34         C  0.23029538  0.32076270  0.36109061     0.96690
O35         O  0.21900620  0.28981640  0.38216485    -0.83880
O36         O  0.28935384  0.21946262  0.38213610    -0.86480
C37         C  0.32027183  0.23079561  0.36105470     1.01160
O38         O  0.31247851  0.22003832  0.33263795    -0.79300
O39         O  0.26132550  0.20507633  0.27863309    -0.79450
C40         C  0.24109398  0.24156903  0.26597972     1.01130
Cr41       Cr  0.17529936  0.25520579  0.32044450     1.93740
Cr42       Cr  0.21625997  0.21672927  0.38254359     1.93210
Cr43       Cr  0.25470171  0.17578233  0.32045056     1.39100
O44         O  0.21462806  0.21512126  0.34113574    -1.24540
O45         O  0.30832968  0.36860779  0.19233471    -0.86790
O46         O  0.22842133  0.37069575  0.14768574    -0.83920
C47         C  0.24879725  0.38398022  0.12304252     0.96670
O48         O  0.28418743  0.35889374  0.11184885    -0.83870
O49         O  0.35828422  0.28476466  0.11182392    -0.86510
C50         C  0.38338052  0.24937331  0.12301737     1.01200
O51         O  0.37011403  0.22899034  0.14766194    -0.79280
O52         O  0.36807486  0.30884323  0.19233701    -0.79460
C53         C  0.35507601  0.35559343  0.19373635     1.01150
O54         O  0.23959190  0.29681767  0.22326727    -0.86790
O55         O  0.18842883  0.28195257  0.16926947    -0.83850
C56         C  0.18063289  0.27119801  0.14085282     0.96690
O57         O  0.21155212  0.28252887  0.11977248    -0.83880
O58         O  0.28188792  0.21216310  0.11974569    -0.86480
C59         C  0.27059573  0.18121803  0.14082084     1.01160
O60         O  0.28138692  0.18898066  0.16923547    -0.79300
O61         O  0.29627468  0.24003882  0.22324226    -0.79450
C62         C  0.25986466  0.26035687  0.23593000     1.01130
Cr63       Cr  0.24622403  0.32617913  0.18147108     1.93740
Cr64       Cr  0.28464518  0.28525117  0.11936616     1.93210
Cr65       Cr  0.32562392  0.24675328  0.18145329     1.39100
O66         O  0.28628727  0.28684848  0.16077400    -1.24540
O67         O  0.44260232  0.38336957  0.19233577    -0.86790
O68         O  0.02245321  0.38132571  0.14765988    -0.83840
C69         C  0.50206541  0.36805662  0.12301593     0.96670
O70         O  0.46667278  0.39315276  0.11182254    -0.83870
O71         O  0.39254383  0.46724824  0.11184659    -0.86510
C72         C  0.36745961  0.50263941  0.12303994     1.01200
O73         O  0.38074652  0.02301595  0.14768309    -0.79280
O74         O  0.38283485  0.44311208  0.19233210    -0.79460
C75         C  0.39585045  0.39636773  0.19373529     1.01150
O76         O  0.01140726  0.45517151  0.22324123    -0.86790
O77         O  0.06246424  0.47005468  0.16923416    -0.83850
C78         C  0.07022368  0.48084326  0.14081953     0.96690
O79         O  0.03927778  0.46954515  0.11974442    -0.83880
O80         O  0.46891352  0.03988273  0.11976988    -0.86480
C81         C  0.48024387  0.07080411  0.14085014     1.01160
O82         O  0.46949133  0.06300951  0.16926696    -0.79300
O83         O  0.45462459  0.01185059  0.22326511    -0.79450
C84         C  0.99109063  0.99157448  0.23592924     1.01130
Cr85       Cr  0.00469241  0.42581853  0.18145163     1.93740
Cr86       Cr  0.46618854  0.46679051  0.11936424     1.93210
Cr87       Cr  0.42526399  0.00521579  0.18146868     1.39100
O88         O  0.46459410  0.46515199  0.16077207    -1.24540
O89         O  0.38286040  0.30882981  0.44231461    -0.86790
O90         O  0.38080269  0.22895246  0.39765127    -0.83840
C91         C  0.36751994  0.24933668  0.37300755     0.96670
O92         O  0.39260845  0.28472804  0.36181384    -0.83870
O93         O  0.46671852  0.35883617  0.36181350    -0.86510
C94         C  0.50210660  0.38392890  0.37301069     1.01200
O95         O  0.02248884  0.37065078  0.39765679    -0.79280
O96         O  0.44261906  0.36858208  0.44232250    -0.79460
C97         C  0.39587005  0.35557562  0.44372663     1.01150
O98         O  0.45464282  0.24007013  0.47324246    -0.86790
O99         O  0.46953944  0.18895408  0.41924475    -0.83850
C100        C  0.48031135  0.18117560  0.39083044     0.96690
O101        O  0.46899274  0.21210713  0.36974995    -0.83880
O102        O  0.03934108  0.28245885  0.36974936    -0.86480
C103        C  0.07027445  0.27113940  0.39082932     1.01160
O104        O  0.06249958  0.28191291  0.41924350    -0.79300
O105        O  0.01138860  0.29678633  0.47324012    -0.79450
C106        C  0.99107889  0.26036779  0.48592075     1.01130
Cr107      Cr  0.42530094  0.24673563  0.43144481     1.93740
Cr108      Cr  0.46625004  0.28519742  0.36935018     1.93210
Cr109      Cr  0.00471605  0.32614562  0.43144752     1.39100
O110        O  0.46463196  0.28681728  0.41075816    -1.24540
O111        O  0.36810033  0.44309865  0.44235390    -0.86790
O112        O  0.37016959  0.02297851  0.39769343    -0.83840
C113        C  0.38344010  0.50260347  0.37304940     0.96670
O114        O  0.35834803  0.46721241  0.36185624    -0.83870
O115        O  0.28423294  0.39309579  0.36185748    -0.86510
C116        C  0.24883835  0.36800569  0.37304733     1.01200
O117        O  0.22845670  0.38128098  0.39768835    -0.79280
O118        O  0.30834639  0.38334372  0.44234741    -0.79460
C119        C  0.35509558  0.39634988  0.44374437     1.01150
O120        O  0.29629285  0.01188154  0.47326477    -0.86790
O121        O  0.28143473  0.06298300  0.41925778    -0.83850
C122        C  0.27066271  0.07076189  0.39084069     0.96690
O123        O  0.28196618  0.03982705  0.36976566    -0.83880
O124        O  0.21161472  0.46947515  0.36976752    -0.86480
C125        C  0.18068305  0.48078440  0.39084311     1.01160
O126        O  0.18846377  0.47001471  0.41926018    -0.79300
O127        O  0.23957314  0.45513967  0.47326823    -0.79450
C128        C  0.25985292  0.99158486  0.48593838     1.01130
Cr129      Cr  0.32566060  0.00519817  0.43147694     1.93740
Cr130      Cr  0.28470599  0.46673719  0.36938002     1.93210
Cr131      Cr  0.24624744  0.42578484  0.43147492     1.39100
O132        O  0.28632472  0.46512092  0.41078770    -1.24540
O133        O  0.05829161  0.13339142  0.05958440    -0.86790
O134        O  0.47841515  0.13132532  0.10424614    -0.83840
C135        C  0.99878872  0.11805217  0.12889617     0.96670
O136        O  0.03417534  0.14314717  0.14009483    -0.83870
O137        O  0.10829319  0.21726272  0.14009450    -0.86510
C138        C  0.13338431  0.25265209  0.12889895     1.01200
O139        O  0.12010686  0.27302701  0.10425102    -0.79280
O140        O  0.11805001  0.19314343  0.05959158    -0.79460
C141        C  0.10504059  0.14639759  0.05818124     1.01150
O142        O  0.48952487  0.20518392  0.02866080    -0.86790
O143        O  0.43840608  0.22005926  0.08265362    -0.83850
C144        C  0.43062715  0.23083528  0.11106686     0.96690
O145        O  0.46156050  0.21952609  0.13214871    -0.83880
O146        O  0.03190799  0.28987636  0.13214818    -0.86480
C147        C  0.02059964  0.32080791  0.11106584     1.01160
O148        O  0.03137393  0.31302526  0.08265246    -0.79300
O149        O  0.04626985  0.26190117  0.02865873    -0.79450
C150        C  0.50983457  0.24160244  0.01598010     1.01130
Cr151      Cr  0.49619336  0.17582858  0.07045480     1.93740
Cr152      Cr  0.03465054  0.21678703  0.13255253     1.93210
Cr153      Cr  0.07560951  0.25523937  0.07045723     1.39100
O154        O  0.03627459  0.21516093  0.09114451    -1.24540
O155        O  0.19256428  0.11862957  0.05956465    -0.86790
O156        O  0.27244702  0.12069541  0.10422784    -0.83840
C157        C  0.25205686  0.13397579  0.12886496     0.96670
O158        O  0.21666074  0.10888809  0.14005340    -0.83870
O159        O  0.14255284  0.03477908  0.14005464    -0.86510
C160        C  0.11746338  0.99938593  0.12886341     1.01200
O161        O  0.13073934  0.47900129  0.10422362    -0.79280
O162        O  0.13280990  0.05887456  0.05955900    -0.79460
C163        C  0.14581501  0.10562326  0.05816673     1.01150
O164        O  0.26134039  0.04682987  0.02865035    -0.86790
O165        O  0.31244152  0.03195716  0.08266241    -0.83850
C166        C  0.32021795  0.02119003  0.11108044     0.96690
O167        O  0.28928621  0.03250984  0.13215405    -0.83880
O168        O  0.21893359  0.46215667  0.13215586    -0.86480
C169        C  0.23024775  0.43122179  0.11108278     1.01160
O170        O  0.21947827  0.43899637  0.08266471    -0.79300
O171        O  0.20461957  0.49008931  0.02865348    -0.79450
C172        C  0.24106060  0.51038464  0.01598029     1.01130
Cr173      Cr  0.25466180  0.07618914  0.07044210     1.93740
Cr174      Cr  0.21619393  0.03524765  0.13253670     1.93210
Cr175      Cr  0.17524953  0.49677681  0.07044043     1.39100
O176        O  0.21458142  0.03685739  0.09112904    -1.24540
O177        O  0.11811293  0.05883139  0.80960615    -0.86790
O178        O  0.12013727  0.47891443  0.85425430    -0.83840
C179        C  0.13343585  0.99931972  0.87888548     0.96670
O180        O  0.10836197  0.03473126  0.89006288    -0.83870
O181        O  0.03423233  0.10882563  0.89008811    -0.86510
C182        C  0.99886046  0.13393232  0.87887862     1.01200
O183        O  0.47850139  0.12067502  0.85422274    -0.79280
O184        O  0.05833893  0.11856730  0.80954593    -0.79460
C185        C  0.10509464  0.10557186  0.80817468     1.01150
O186        O  0.04636598  0.49011682  0.77863548    -0.86790
O187        O  0.03140216  0.43896812  0.83264077    -0.83850
C188        C  0.02064687  0.43117629  0.86105772     0.96690
O189        O  0.03197955  0.46209642  0.88213900    -0.83880
O190        O  0.46162753  0.03244618  0.88216652    -0.86480
C191        C  0.43068042  0.02115068  0.86109238     1.01160
O192        O  0.43844268  0.03193671  0.83267791    -0.79300
O193        O  0.48951020  0.04672263  0.77867816    -0.79450
C194        C  0.50986795  0.51035166  0.76598075     1.01130
Cr195      Cr  0.07565913  0.49674326  0.82045318     1.93740
Cr196      Cr  0.03471592  0.03518942  0.88254573     1.93210
Cr197      Cr  0.49623320  0.07614309  0.82044643     1.39100
O198        O  0.03632089  0.03681763  0.84113789    -1.24540
O199        O  0.13287300  0.19310016  0.80954468    -0.86790
O200        O  0.13077021  0.27294015  0.85422040    -0.83840
C201        C  0.11751559  0.25258627  0.87887705     0.96670
O202        O  0.14262243  0.21721568  0.89008667    -0.83870
O203        O  0.21671793  0.14308532  0.89006060    -0.86510
C204        C  0.25212838  0.11800899  0.87888286     1.01200
O205        O  0.27253282  0.13130488  0.85425146    -0.79280
O206        O  0.19261154  0.13332905  0.80960338    -0.79460
C207        C  0.14586908  0.14634613  0.80817357     1.01150
O208        O  0.20471580  0.26192798  0.77867680    -0.86790
O209        O  0.21950665  0.31299705  0.83267613    -0.83850
C210        C  0.23029543  0.32076262  0.86109057     0.96690
O211        O  0.21900622  0.28981635  0.88216483    -0.83880
O212        O  0.28935385  0.21946255  0.88213614    -0.86480
C213        C  0.32027186  0.23079548  0.86105474     1.01160
O214        O  0.31247854  0.22003815  0.83263799    -0.79300
O215        O  0.26132559  0.20507642  0.77863316    -0.79450
C216        C  0.24109392  0.24156900  0.76597973     1.01130
Cr217      Cr  0.17529934  0.25520571  0.82044453     1.93740
Cr218      Cr  0.21625998  0.21672922  0.88254361     1.93210
Cr219      Cr  0.25470170  0.17578225  0.82045057     1.39100
O220        O  0.21462806  0.21512118  0.84113576    -1.24540
O221        O  0.30832959  0.36860778  0.69233475    -0.86790
O222        O  0.22842125  0.37069578  0.64768577    -0.83920
C223        C  0.24879715  0.38398024  0.62304254     0.96670
O224        O  0.28418732  0.35889375  0.61184886    -0.83870
O225        O  0.35828411  0.28476466  0.61182392    -0.86510
C226        C  0.38338042  0.24937330  0.62301736     1.01200
O227        O  0.37011392  0.22899032  0.64766193    -0.79280
O228        O  0.36807479  0.30884324  0.69233699    -0.79460
C229        C  0.35507593  0.35559342  0.69373636     1.01150
O230        O  0.23959177  0.29681762  0.72326727    -0.86790
O231        O  0.18842873  0.28195259  0.66926947    -0.83850
C232        C  0.18063278  0.27119804  0.64085283     0.96690
O233        O  0.21155202  0.28252890  0.61977248    -0.83880
O234        O  0.28188779  0.21216312  0.61974571    -0.86480
C235        C  0.27059563  0.18121804  0.64082086     1.01160
O236        O  0.28138682  0.18898068  0.66923548    -0.79300
O237        O  0.29627464  0.24003886  0.72324228    -0.79450
C238        C  0.25986458  0.26035686  0.73593002     1.01130
Cr239      Cr  0.24622393  0.32617913  0.68147110     1.93740
Cr240      Cr  0.28464507  0.28525119  0.61936616     1.93210
Cr241      Cr  0.32562384  0.24675329  0.68145330     1.39100
O242        O  0.28628717  0.28684849  0.66077401    -1.24540
O243        O  0.44260223  0.38336954  0.69233571    -0.86790
O244        O  0.02245318  0.38132577  0.64765984    -0.83840
C245        C  0.50206531  0.36805665  0.62301593     0.96670
O246        O  0.46667264  0.39315276  0.61182257    -0.83870
O247        O  0.39254374  0.46724827  0.61184656    -0.86510
C248        C  0.36745950  0.50263941  0.62303994     1.01200
O249        O  0.38074642  0.02301596  0.64768306    -0.79280
O250        O  0.38283479  0.44311209  0.69233215    -0.79460
C251        C  0.39585037  0.39636772  0.69373529     1.01150
O252        O  0.01140709  0.45517135  0.72324126    -0.86790
O253        O  0.06246412  0.47005473  0.66923418    -0.83850
C254        C  0.07022358  0.48084328  0.64081955     0.96690
O255        O  0.03927770  0.46954514  0.61974443    -0.83880
O256        O  0.46891344  0.03988274  0.61976985    -0.86480
C257        C  0.48024378  0.07080412  0.64085010     1.01160
O258        O  0.46949125  0.06300954  0.66926692    -0.79300
O259        O  0.45462452  0.01185064  0.72326509    -0.79450
C260        C  0.99109051  0.99157453  0.73592923     1.01130
Cr261      Cr  0.00469231  0.42581852  0.68145162     1.93740
Cr262      Cr  0.46618844  0.46679052  0.61936424     1.93210
Cr263      Cr  0.42526391  0.00521582  0.68146866     1.39100
O264        O  0.46459400  0.46515200  0.66077207    -1.24540
O265        O  0.38286035  0.30882967  0.94231457    -0.86790
O266        O  0.38080279  0.22895222  0.89765127    -0.83840
C267        C  0.36751999  0.24933651  0.87300758     0.96670
O268        O  0.39260846  0.28472793  0.86181390    -0.83870
O269        O  0.46671857  0.35883607  0.86181351    -0.86510
C270        C  0.50210660  0.38392883  0.87301073     1.01200
O271        O  0.02248881  0.37065074  0.89765684    -0.79280
O272        O  0.44261904  0.36858192  0.94232258    -0.79460
C273        C  0.39587002  0.35557547  0.94372664     1.01150
O274        O  0.45464268  0.24007009  0.97324252    -0.86790
O275        O  0.46953953  0.18895400  0.91924481    -0.83850
C276        C  0.48031142  0.18117551  0.89083050     0.96690
O277        O  0.46899279  0.21210703  0.86975001    -0.83880
O278        O  0.03934111  0.28245880  0.86974938    -0.86480
C279        C  0.07027448  0.27113937  0.89082934     1.01160
O280        O  0.06249962  0.28191288  0.91924352    -0.79300
O281        O  0.01138864  0.29678618  0.97324014    -0.79450
C282        C  0.99107889  0.26036768  0.98592078     1.01130
Cr283      Cr  0.42530096  0.24673552  0.93144483     1.93740
Cr284      Cr  0.46625007  0.28519732  0.86935021     1.93210
Cr285      Cr  0.00471607  0.32614554  0.93144756     1.39100
O286        O  0.46463199  0.28681718  0.91075819    -1.24540
O287        O  0.36810033  0.44309850  0.94235391    -0.86790
O288        O  0.37016953  0.02297853  0.89769343    -0.83840
C289        C  0.38344017  0.50260332  0.87304938     0.96670
O290        O  0.35834808  0.46721230  0.86185620    -0.83870
O291        O  0.28423299  0.39309570  0.86185745    -0.86510
C292        C  0.24883837  0.36800562  0.87304728     1.01200
O293        O  0.22845670  0.38128093  0.89768829    -0.79280
O294        O  0.30834637  0.38334359  0.94234736    -0.79460
C295        C  0.35509556  0.39634973  0.94374436     1.01150
O296        O  0.29629296  0.01188130  0.97326482    -0.86790
O297        O  0.28143464  0.06298288  0.91925783    -0.83850
C298        C  0.27066266  0.07076180  0.89084073     0.96690
O299        O  0.28196619  0.03982698  0.86976569    -0.83880
O300        O  0.21161478  0.46947509  0.86976749    -0.86480
C301        C  0.18068311  0.48078436  0.89084308     1.01160
O302        O  0.18846383  0.47001466  0.91926014    -0.79300
O303        O  0.23957318  0.45513953  0.97326820    -0.79450
C304        C  0.25985291  0.99158475  0.98593837     1.01130
Cr305      Cr  0.32566059  0.00519806  0.93147694     1.93740
Cr306      Cr  0.28470605  0.46673710  0.86937999     1.93210
Cr307      Cr  0.24624746  0.42578474  0.93147488     1.39100
O308        O  0.28632477  0.46512081  0.91078767    -1.24540
O309        O  0.05829156  0.13339150  0.55958433    -0.86790
O310        O  0.47841515  0.13132531  0.60424607    -0.83840
C311        C  0.99878867  0.11805217  0.62889614     0.96670
O312        O  0.03417526  0.14314719  0.64009482    -0.83870
O313        O  0.10829310  0.21726274  0.64009448    -0.86510
C314        C  0.13338419  0.25265214  0.62889896     1.01200
O315        O  0.12010673  0.27302710  0.60425104    -0.79280
O316        O  0.11804997  0.19314350  0.55959161    -0.79460
C317        C  0.10504055  0.14639767  0.55818122     1.01150
O318        O  0.48952483  0.20518411  0.52866079    -0.86790
O319        O  0.43840600  0.22005927  0.58265360    -0.83850
C320        C  0.43062705  0.23083526  0.61106685     0.96690
O321        O  0.46156040  0.21952608  0.63214869    -0.83880
O322        O  0.03190787  0.28987638  0.63214816    -0.86480
C323        C  0.02059952  0.32080792  0.61106582     1.01160
O324        O  0.03137381  0.31302528  0.58265245    -0.79300
O325        O  0.04626988  0.26190120  0.52865869    -0.79450
C326        C  0.50983460  0.24160259  0.51598008     1.01130
Cr327      Cr  0.49619332  0.17582864  0.57045476     1.93740
Cr328      Cr  0.03465044  0.21678704  0.63255252     1.93210
Cr329      Cr  0.07560944  0.25523942  0.57045723     1.39100
O330        O  0.03627450  0.21516096  0.59114449    -1.24540
O331        O  0.19256423  0.11862967  0.55956472    -0.86790
O332        O  0.27244703  0.12069537  0.60422789    -0.83840
C333        C  0.25205680  0.13397578  0.62886498     0.96670
O334        O  0.21666063  0.10888811  0.64005338    -0.83870
O335        O  0.14255276  0.03477907  0.64005466    -0.86510
C336        C  0.11746327  0.99938597  0.62886338     1.01200
O337        O  0.13073921  0.47900140  0.60422362    -0.79280
O338        O  0.13280988  0.05887463  0.55955892    -0.79460
C339        C  0.14581498  0.10562334  0.55816672     1.01150
O340        O  0.26134024  0.04683009  0.52865031    -0.86790
O341        O  0.31244142  0.03195714  0.58266238    -0.83850
C342        C  0.32021786  0.02119002  0.61108041     0.96690
O343        O  0.28928613  0.03250986  0.63215403    -0.83880
O344        O  0.21893349  0.46215670  0.63215589    -0.86480
C345        C  0.23024765  0.43122183  0.61108281     1.01160
O346        O  0.21947816  0.43899640  0.58266475    -0.79300
O347        O  0.20461962  0.49008934  0.52865353    -0.79450
C348        C  0.24106057  0.51038476  0.51598032     1.01130
Cr349      Cr  0.25466172  0.07618919  0.57044211     1.93740
Cr350      Cr  0.21619384  0.03524767  0.63253669     1.93210
Cr351      Cr  0.17524945  0.49677687  0.57044044     1.39100
O352        O  0.21458133  0.03685741  0.59112904    -1.24540
O353        O  0.11811302  0.55883141  0.30960623    -0.86790
O354        O  0.12013728  0.97891458  0.35425433    -0.83840
C355        C  0.13343581  0.49931976  0.37888552     0.96670
O356        O  0.10836194  0.53473135  0.39006288    -0.83870
O357        O  0.03423228  0.60882570  0.39008811    -0.86510
C358        C  0.99886047  0.63393242  0.37887858     1.01200
O359        O  0.47850148  0.62067517  0.35422267    -0.79280
O360        O  0.05833899  0.61856729  0.30954585    -0.79460
C361        C  0.10509471  0.60557187  0.30817468     1.01150
O362        O  0.04636596  0.99011688  0.27863550    -0.86790
O363        O  0.03140218  0.93896820  0.33264080    -0.83850
C364        C  0.02064688  0.93117637  0.36105774     0.96690
O365        O  0.03197953  0.96209652  0.38213902    -0.83880
O366        O  0.46162750  0.53244629  0.38216653    -0.86480
C367        C  0.43068039  0.52115080  0.36109239     1.01160
O368        O  0.43844266  0.53193683  0.33267792    -0.79300
O369        O  0.48951018  0.54672251  0.27867819    -0.79450
C370        C  0.50986797  0.01035171  0.26598076     1.01130
Cr371      Cr  0.07565912  0.99674336  0.32045320     1.93740
Cr372      Cr  0.03471589  0.53518950  0.38254572     1.93210
Cr373      Cr  0.49623323  0.57614313  0.32044641     1.39100
O374        O  0.03632090  0.53681770  0.34113788    -1.24540
O375        O  0.13287308  0.69310018  0.30954461    -0.86790
O376        O  0.13077011  0.77294009  0.35422037    -0.83840
C377        C  0.11751555  0.75258630  0.37887705     0.96670
O378        O  0.14262242  0.71721577  0.39008671    -0.83870
O379        O  0.21671790  0.64308539  0.39006058    -0.86510
C380        C  0.25212841  0.61800911  0.37888289     1.01200
O381        O  0.27253294  0.63130506  0.35425153    -0.79280
O382        O  0.19261160  0.63332905  0.30960347    -0.79460
C383        C  0.14586915  0.64634615  0.30817358     1.01150
O384        O  0.20471599  0.76192815  0.27867686    -0.86790
O385        O  0.21950655  0.81299715  0.33267619    -0.83850
C386        C  0.23029535  0.82076271  0.36109062     0.96690
O387        O  0.21900619  0.78981643  0.38216487    -0.83880
O388        O  0.28935383  0.71946264  0.38213614    -0.86480
C389        C  0.32027183  0.73079562  0.36105473     1.01160
O390        O  0.31247850  0.72003832  0.33263798    -0.79300
O391        O  0.26132550  0.70507631  0.27863312    -0.79450
C392        C  0.24109398  0.74156901  0.26597974     1.01130
Cr393      Cr  0.17529934  0.75520577  0.32044452     1.93740
Cr394      Cr  0.21625996  0.71672930  0.38254363     1.93210
Cr395      Cr  0.25470170  0.67578233  0.32045060     1.39100
O396        O  0.21462804  0.71512126  0.34113577    -1.24540
O397        O  0.30832966  0.86860779  0.19233472    -0.86790
O398        O  0.22842130  0.87069573  0.14768575    -0.83920
C399        C  0.24879724  0.88398021  0.12304254     0.96670
O400        O  0.28418744  0.85889374  0.11184887    -0.83870
O401        O  0.35828421  0.78476464  0.11182391    -0.86510
C402        C  0.38338053  0.74937330  0.12301737     1.01200
O403        O  0.37011405  0.72899035  0.14766195    -0.79280
O404        O  0.36807484  0.80884323  0.19233703    -0.79460
C405        C  0.35507599  0.85559342  0.19373636     1.01150
O406        O  0.23959192  0.79681767  0.22326729    -0.86790
O407        O  0.18842883  0.78195254  0.16926949    -0.83850
C408        C  0.18063289  0.77119800  0.14085284     0.96690
O409        O  0.21155211  0.78252888  0.11977249    -0.83880
O410        O  0.28188790  0.71216310  0.11974569    -0.86480
C411        C  0.27059574  0.68121802  0.14082083     1.01160
O412        O  0.28138694  0.68898064  0.16923546    -0.79300
O413        O  0.29627465  0.74003877  0.22324226    -0.79450
C414        C  0.25986465  0.76035685  0.23593002     1.01130
Cr415      Cr  0.24622402  0.82617911  0.18147109     1.93740
Cr416      Cr  0.28464517  0.78525117  0.11936617     1.93210
Cr417      Cr  0.32562392  0.74675326  0.18145330     1.39100
O418        O  0.28628726  0.78684846  0.16077401    -1.24540
O419        O  0.44260229  0.88336956  0.19233578    -0.86790
O420        O  0.02245323  0.88132574  0.14765988    -0.83840
C421        C  0.50206538  0.86805663  0.12301594     0.96670
O422        O  0.46667275  0.89315276  0.11182255    -0.83870
O423        O  0.39254382  0.96724826  0.11184659    -0.86510
C424        C  0.36745959  0.00263942  0.12303994     1.01200
O425        O  0.38074654  0.52301596  0.14768308    -0.79280
O426        O  0.38283482  0.94311208  0.19233211    -0.79460
C427        C  0.39585042  0.89636772  0.19373530     1.01150
O428        O  0.01140719  0.95517147  0.22324126    -0.86790
O429        O  0.06246421  0.97005472  0.16923418    -0.83850
C430        C  0.07022367  0.98084327  0.14081955     0.96690
O431        O  0.03927778  0.96954515  0.11974444    -0.83880
O432        O  0.46891353  0.53988273  0.11976987    -0.86480
C433        C  0.48024389  0.57080411  0.14085012     1.01160
O434        O  0.46949137  0.56300951  0.16926695    -0.79300
O435        O  0.45462462  0.51185057  0.22326511    -0.79450
C436        C  0.99109064  0.49157446  0.23592924     1.01130
Cr437      Cr  0.00469239  0.92581854  0.18145164     1.93740
Cr438      Cr  0.46618852  0.96679052  0.11936425     1.93210
Cr439      Cr  0.42526402  0.50521579  0.18146867     1.39100
O440        O  0.46459408  0.96515199  0.16077208    -1.24540
O441        O  0.38286036  0.80882979  0.44231458    -0.86790
O442        O  0.38080275  0.72895238  0.39765126    -0.83840
C443        C  0.36751995  0.74933666  0.37300757     0.96670
O444        O  0.39260844  0.78472807  0.36181388    -0.83870
O445        O  0.46671854  0.85883618  0.36181351    -0.86510
C446        C  0.50210660  0.88392892  0.37301072     1.01200
O447        O  0.02248882  0.87065081  0.39765685    -0.79280
O448        O  0.44261904  0.86858205  0.44232255    -0.79460
C449        C  0.39587002  0.85557559  0.44372663     1.01150
O450        O  0.45464274  0.74007019  0.47324249    -0.86790
O451        O  0.46953950  0.68895410  0.41924478    -0.83850
C452        C  0.48031139  0.68117562  0.39083047     0.96690
O453        O  0.46899274  0.71210714  0.36974998    -0.83880
O454        O  0.03934108  0.78245888  0.36974939    -0.86480
C455        C  0.07027444  0.77113942  0.39082935     1.01160
O456        O  0.06249957  0.78191293  0.41924353    -0.79300
O457        O  0.01138857  0.79678627  0.47324014    -0.79450
C458        C  0.99107884  0.76036775  0.48592077     1.01130
Cr459      Cr  0.42530095  0.74673563  0.43144482     1.93740
Cr460      Cr  0.46625004  0.78519744  0.36935020     1.93210
Cr461      Cr  0.00471603  0.82614561  0.43144756     1.39100
O462        O  0.46463197  0.78681729  0.41075818    -1.24540
O463        O  0.36810029  0.94309863  0.44235394    -0.86790
O464        O  0.37016951  0.52297863  0.39769344    -0.83840
C465        C  0.38344014  0.00260340  0.37304937     0.96670
O466        O  0.35834803  0.96721238  0.36185619    -0.83870
O467        O  0.28423295  0.89309576  0.36185750    -0.86510
C468        C  0.24883830  0.86800571  0.37304732     1.01200
O469        O  0.22845660  0.88128106  0.39768832    -0.79280
O470        O  0.30834637  0.88334368  0.44234735    -0.79460
C471        C  0.35509555  0.89634984  0.44374437     1.01150
O472        O  0.29629295  0.51188144  0.47326483    -0.86790
O473        O  0.28143465  0.56298298  0.41925784    -0.83850
C474        C  0.27066265  0.57076190  0.39084075     0.96690
O475        O  0.28196613  0.53982707  0.36976571    -0.83880
O476        O  0.21161474  0.96947517  0.36976753    -0.86480
C477        C  0.18068309  0.98078447  0.39084313     1.01160
O478        O  0.18846382  0.97001481  0.41926020    -0.79300
O479        O  0.23957325  0.95513956  0.47326825    -0.79450
C480        C  0.25985292  0.49158487  0.48593839     1.01130
Cr481      Cr  0.32566058  0.50519817  0.43147695     1.93740
Cr482      Cr  0.28470601  0.96673718  0.36938000     1.93210
Cr483      Cr  0.24624745  0.92578485  0.43147490     1.39100
O484        O  0.28632474  0.96512092  0.41078769    -1.24540
O485        O  0.05829163  0.63339142  0.05958440    -0.86790
O486        O  0.47841524  0.63132530  0.10424610    -0.83840
C487        C  0.99878873  0.61805216  0.12889618     0.96670
O488        O  0.03417535  0.64314717  0.14009485    -0.83870
O489        O  0.10829319  0.71726272  0.14009451    -0.86510
C490        C  0.13338430  0.75265208  0.12889896     1.01200
O491        O  0.12010686  0.77302700  0.10425103    -0.79280
O492        O  0.11805002  0.69314344  0.05959158    -0.79460
C493        C  0.10504061  0.64639760  0.05818124     1.01150
O494        O  0.48952491  0.70518405  0.02866080    -0.86790
O495        O  0.43840610  0.72005925  0.08265361    -0.83850
C496        C  0.43062715  0.73083526  0.11106686     0.96690
O497        O  0.46156051  0.71952607  0.13214871    -0.83880
O498        O  0.03190798  0.78987636  0.13214819    -0.86480
C499        C  0.02059963  0.82080791  0.11106585     1.01160
O500        O  0.03137393  0.81302526  0.08265247    -0.79300
O501        O  0.04626985  0.76190118  0.02865873    -0.79450
C502        C  0.50983466  0.74160254  0.01598009     1.01130
Cr503      Cr  0.49619341  0.67582861  0.07045478     1.93740
Cr504      Cr  0.03465054  0.71678703  0.13255254     1.93210
Cr505      Cr  0.07560952  0.75523937  0.07045724     1.39100
O506        O  0.03627460  0.71516093  0.09114451    -1.24540
O507        O  0.19256430  0.61862958  0.05956465    -0.86790
O508        O  0.27244705  0.62069539  0.10422784    -0.83840
C509        C  0.25205688  0.63397577  0.12886495     0.96670
O510        O  0.21666074  0.60888808  0.14005339    -0.83870
O511        O  0.14255285  0.53477907  0.14005462    -0.86510
C512        C  0.11746338  0.49938592  0.12886339     1.01200
O513        O  0.13073933  0.97900129  0.10422365    -0.79280
O514        O  0.13280992  0.55887457  0.05955898    -0.79460
C515        C  0.14581503  0.60562327  0.05816672     1.01150
O516        O  0.26134040  0.54682988  0.02865034    -0.86790
O517        O  0.31244154  0.53195715  0.08266240    -0.83850
C518        C  0.32021797  0.52119002  0.11108043     0.96690
O519        O  0.28928622  0.53250983  0.13215404    -0.83880
O520        O  0.21893358  0.96215667  0.13215588    -0.86480
C521        C  0.23024775  0.93122179  0.11108280     1.01160
O522        O  0.21947827  0.93899637  0.08266473    -0.79300
O523        O  0.20461955  0.99008932  0.02865349    -0.79450
C524        C  0.24106058  0.01038464  0.01598030     1.01130
Cr525      Cr  0.25466182  0.57618913  0.07044209     1.93740
Cr526      Cr  0.21619393  0.53524764  0.13253668     1.93210
Cr527      Cr  0.17524951  0.99677681  0.07044045     1.39100
O528        O  0.21458143  0.53685738  0.09112903    -1.24540
O529        O  0.11811302  0.55883132  0.80960617    -0.86790
O530        O  0.12013727  0.97891449  0.85425427    -0.83840
C531        C  0.13343588  0.49931971  0.87888550     0.96670
O532        O  0.10836200  0.53473128  0.89006287    -0.83870
O533        O  0.03423235  0.60882562  0.89008809    -0.86510
C534        C  0.99886051  0.63393233  0.87887859     1.01200
O535        O  0.47850140  0.62067501  0.85422270    -0.79280
O536        O  0.05833902  0.61856723  0.80954589    -0.79460
C537        C  0.10509473  0.60557180  0.80817467     1.01150
O538        O  0.04636585  0.99011689  0.77863548    -0.86790
O539        O  0.03140214  0.93896814  0.83264077    -0.83850
C540        C  0.02064686  0.93117629  0.86105771     0.96690
O541        O  0.03197952  0.96209643  0.88213900    -0.83880
O542        O  0.46162755  0.53244619  0.88216650    -0.86480
C543        C  0.43068045  0.52115066  0.86109236     1.01160
O544        O  0.43844272  0.53193667  0.83267788    -0.79300
O545        O  0.48951028  0.54672259  0.77867814    -0.79450
C546        C  0.50986789  0.01035173  0.76598075     1.01130
Cr547      Cr  0.07565907  0.99674331  0.82045317     1.93740
Cr548      Cr  0.03471595  0.53518942  0.88254572     1.93210
Cr549      Cr  0.49623324  0.57614305  0.82044641     1.39100
O550        O  0.03632094  0.53681761  0.84113788    -1.24540
O551        O  0.13287308  0.69310010  0.80954465    -0.86790
O552        O  0.13077019  0.77294008  0.85422038    -0.83840
C553        C  0.11751560  0.75258623  0.87887704     0.96670
O554        O  0.14262245  0.71721566  0.89008667    -0.83870
O555        O  0.21671796  0.64308530  0.89006058    -0.86510
C556        C  0.25212845  0.61800900  0.87888286     1.01200
O557        O  0.27253294  0.63130493  0.85425148    -0.79280
O558        O  0.19261163  0.63332900  0.80960340    -0.79460
C559        C  0.14586917  0.64634607  0.80817356     1.01150
O560        O  0.20471589  0.76192798  0.77867681    -0.86790
O561        O  0.21950663  0.81299704  0.83267614    -0.83850
C562        C  0.23029542  0.82076261  0.86109058     0.96690
O563        O  0.21900622  0.78981633  0.88216483    -0.83880
O564        O  0.28935387  0.71946255  0.88213614    -0.86480
C565        C  0.32027187  0.73079552  0.86105473     1.01160
O566        O  0.31247856  0.72003821  0.83263799    -0.79300
O567        O  0.26132561  0.70507636  0.77863314    -0.79450
C568        C  0.24109397  0.74156896  0.76597973     1.01130
Cr569      Cr  0.17529937  0.75520567  0.82044452     1.93740
Cr570      Cr  0.21626000  0.71672920  0.88254361     1.93210
Cr571      Cr  0.25470175  0.67578225  0.82045057     1.39100
O572        O  0.21462809  0.71512117  0.84113575    -1.24540
O573        O  0.30832958  0.86860777  0.69233477    -0.86790
O574        O  0.22842127  0.87069578  0.64768578    -0.83920
C575        C  0.24879715  0.88398024  0.62304255     0.96670
O576        O  0.28418732  0.85889374  0.61184886    -0.83870
O577        O  0.35828413  0.78476467  0.61182393    -0.86510
C578        C  0.38338043  0.74937329  0.62301736     1.01200
O579        O  0.37011392  0.72899030  0.64766193    -0.79280
O580        O  0.36807481  0.80884326  0.69233696    -0.79460
C581        C  0.35507592  0.85559344  0.69373636     1.01150
O582        O  0.23959176  0.79681754  0.72326725    -0.86790
O583        O  0.18842873  0.78195258  0.66926946    -0.83850
C584        C  0.18063279  0.77119802  0.64085282     0.96690
O585        O  0.21155203  0.78252887  0.61977248    -0.83880
O586        O  0.28188782  0.71216311  0.61974572    -0.86480
C587        C  0.27059564  0.68121804  0.64082088     1.01160
O588        O  0.28138684  0.68898069  0.66923551    -0.79300
O589        O  0.29627474  0.74003889  0.72324230    -0.79450
C590        C  0.25986463  0.76035683  0.73593002     1.01130
Cr591      Cr  0.24622392  0.82617911  0.68147110     1.93740
Cr592      Cr  0.28464508  0.78525118  0.61936617     1.93210
Cr593      Cr  0.32562386  0.74675330  0.68145330     1.39100
O594        O  0.28628718  0.78684849  0.66077401    -1.24540
O595        O  0.44260222  0.88336959  0.69233576    -0.86790
O596        O  0.02245309  0.88132574  0.64765988    -0.83840
C597        C  0.50206528  0.86805664  0.62301593     0.96670
O598        O  0.46667265  0.89315277  0.61182255    -0.83870
O599        O  0.39254373  0.96724826  0.61184656    -0.86510
C600        C  0.36745950  0.00263942  0.62303992     1.01200
O601        O  0.38074641  0.52301591  0.64768310    -0.79280
O602        O  0.38283474  0.94311211  0.69233210    -0.79460
C603        C  0.39585035  0.89636775  0.69373529     1.01150
O604        O  0.01140710  0.95517154  0.72324124    -0.86790
O605        O  0.06246412  0.97005473  0.66923417    -0.83850
C606        C  0.07022357  0.98084328  0.64081953     0.96690
O607        O  0.03927768  0.96954514  0.61974442    -0.83880
O608        O  0.46891345  0.53988273  0.61976984    -0.86480
C609        C  0.48024378  0.57080412  0.64085010     1.01160
O610        O  0.46949124  0.56300955  0.66926692    -0.79300
O611        O  0.45462465  0.51185067  0.72326507    -0.79450
C612        C  0.99109061  0.49157443  0.73592923     1.01130
Cr613      Cr  0.00469228  0.92581857  0.68145164     1.93740
Cr614      Cr  0.46618843  0.96679052  0.61936423     1.93210
Cr615      Cr  0.42526394  0.50521581  0.68146867     1.39100
O616        O  0.46459399  0.96515201  0.66077206    -1.24540
O617        O  0.38286043  0.80882971  0.94231462    -0.86790
O618        O  0.38080276  0.72895234  0.89765129    -0.83840
C619        C  0.36751999  0.74933658  0.87300758     0.96670
O620        O  0.39260849  0.78472795  0.86181387    -0.83870
O621        O  0.46671857  0.85883608  0.86181351    -0.86510
C622        C  0.50210664  0.88392882  0.87301070     1.01200
O623        O  0.02248882  0.87065073  0.89765683    -0.79280
O624        O  0.44261907  0.86858200  0.94232251    -0.79460
C625        C  0.39587006  0.85557552  0.94372663     1.01150
O626        O  0.45464288  0.74007006  0.97324247    -0.86790
O627        O  0.46953951  0.68895400  0.91924476    -0.83850
C628        C  0.48031141  0.68117551  0.89083046     0.96690
O629        O  0.46899279  0.71210704  0.86974997    -0.83880
O630        O  0.03934111  0.78245879  0.86974938    -0.86480
C631        C  0.07027449  0.77113935  0.89082934     1.01160
O632        O  0.06249962  0.78191287  0.91924351    -0.79300
O633        O  0.01138863  0.79678619  0.97324013    -0.79450
C634        C  0.99107890  0.76036767  0.98592077     1.01130
Cr635      Cr  0.42530100  0.74673554  0.93144483     1.93740
Cr636      Cr  0.46625009  0.78519734  0.86935020     1.93210
Cr637      Cr  0.00471606  0.82614553  0.93144756     1.39100
O638        O  0.46463201  0.78681720  0.91075817    -1.24540
O639        O  0.36810033  0.94309855  0.94235388    -0.86790
O640        O  0.37016960  0.52297845  0.89769343    -0.83840
C641        C  0.38344013  0.00260335  0.87304939     0.96670
O642        O  0.35834806  0.96721229  0.86185624    -0.83870
O643        O  0.28423297  0.89309570  0.86185745    -0.86510
C644        C  0.24883837  0.86800560  0.87304729     1.01200
O645        O  0.22845672  0.88128089  0.89768832    -0.79280
O646        O  0.30834639  0.88334362  0.94234740    -0.79460
C647        C  0.35509559  0.89634977  0.94374436     1.01150
O648        O  0.29629294  0.51188134  0.97326480    -0.86790
O649        O  0.28143473  0.56298288  0.91925781    -0.83850
C650        C  0.27066273  0.57076180  0.89084072     0.96690
O651        O  0.28196622  0.53982697  0.86976568    -0.83880
O652        O  0.21161476  0.96947508  0.86976748    -0.86480
C653        C  0.18068308  0.98078433  0.89084307     1.01160
O654        O  0.18846379  0.97001462  0.91926013    -0.79300
O655        O  0.23957311  0.95513958  0.97326820    -0.79450
C656        C  0.25985293  0.49158475  0.98593836     1.01130
Cr657      Cr  0.32566063  0.50519804  0.93147693     1.93740
Cr658      Cr  0.28470603  0.96673710  0.86938000     1.93210
Cr659      Cr  0.24624744  0.92578474  0.93147489     1.39100
O660        O  0.28632473  0.96512082  0.91078768    -1.24540
O661        O  0.05829155  0.63339148  0.55958437    -0.86790
O662        O  0.47841515  0.63132530  0.60424607    -0.83840
C663        C  0.99878864  0.61805218  0.62889614     0.96670
O664        O  0.03417526  0.64314717  0.64009481    -0.83870
O665        O  0.10829311  0.71726273  0.64009448    -0.86510
C666        C  0.13338420  0.75265212  0.62889895     1.01200
O667        O  0.12010673  0.77302709  0.60425103    -0.79280
O668        O  0.11804994  0.69314351  0.55959159    -0.79460
C669        C  0.10504054  0.64639766  0.55818124     1.01150
O670        O  0.48952479  0.70518411  0.52866080    -0.86790
O671        O  0.43840599  0.72005925  0.58265361    -0.83850
C672        C  0.43062705  0.73083526  0.61106686     0.96690
O673        O  0.46156042  0.71952609  0.63214870    -0.83880
O674        O  0.03190789  0.78987637  0.63214818    -0.86480
C675        C  0.02059952  0.82080792  0.61106585     1.01160
O676        O  0.03137380  0.81302528  0.58265247    -0.79300
O677        O  0.04626979  0.76190121  0.52865872    -0.79450
C678        C  0.50983458  0.74160257  0.51598009     1.01130
Cr679      Cr  0.49619332  0.67582864  0.57045476     1.93740
Cr680      Cr  0.03465045  0.71678704  0.63255252     1.93210
Cr681      Cr  0.07560942  0.75523942  0.57045723     1.39100
O682        O  0.03627450  0.71516097  0.59114450    -1.24540
O683        O  0.19256423  0.61862967  0.55956472    -0.86790
O684        O  0.27244701  0.62069540  0.60422790    -0.83840
C685        C  0.25205680  0.63397579  0.62886500     0.96670
O686        O  0.21666064  0.60888811  0.64005342    -0.83870
O687        O  0.14255276  0.53477909  0.64005467    -0.86510
C688        C  0.11746328  0.49938598  0.62886341     1.01200
O689        O  0.13073918  0.97900140  0.60422359    -0.79280
O690        O  0.13280987  0.55887464  0.55955895    -0.79460
C691        C  0.14581497  0.60562335  0.55816674     1.01150
O692        O  0.26134028  0.54683007  0.52865034    -0.86790
O693        O  0.31244143  0.53195717  0.58266241    -0.83850
C694        C  0.32021787  0.52119003  0.61108044     0.96690
O695        O  0.28928613  0.53250986  0.63215405    -0.83880
O696        O  0.21893349  0.96215670  0.63215589    -0.86480
C697        C  0.23024764  0.93122181  0.61108281     1.01160
O698        O  0.21947814  0.93899638  0.58266475    -0.79300
O699        O  0.20461965  0.99008928  0.52865352    -0.79450
C700        C  0.24106057  0.01038474  0.51598030     1.01130
Cr701      Cr  0.25466172  0.57618920  0.57044213     1.93740
Cr702      Cr  0.21619384  0.53524768  0.63253671     1.93210
Cr703      Cr  0.17524945  0.99677685  0.57044042     1.39100
O704        O  0.21458134  0.53685743  0.59112905    -1.24540
O705        O  0.61811298  0.05883143  0.30960617    -0.86790
O706        O  0.62013720  0.47891447  0.35425434    -0.83840
C707        C  0.63343584  0.99931983  0.37888551     0.96670
O708        O  0.60836195  0.03473140  0.39006288    -0.83870
O709        O  0.53423228  0.10882573  0.39008807    -0.86510
C710        C  0.49886043  0.13393241  0.37887857     1.01200
O711        O  0.97850139  0.12067510  0.35422268    -0.79280
O712        O  0.55833897  0.11856733  0.30954589    -0.79460
C713        C  0.60509468  0.10557190  0.30817466     1.01150
O714        O  0.54636608  0.49011699  0.27863546    -0.86790
O715        O  0.53140212  0.43896822  0.33264076    -0.83850
C716        C  0.52064683  0.43117637  0.36105770     0.96690
O717        O  0.53197948  0.46209650  0.38213900    -0.83880
O718        O  0.96162751  0.03244626  0.38216650    -0.86480
C719        C  0.93068043  0.02115074  0.36109235     1.01160
O720        O  0.93844271  0.03193675  0.33267788    -0.79300
O721        O  0.98951030  0.04672263  0.27867815    -0.79450
C722        C  0.00986799  0.51035170  0.26598076     1.01130
Cr723      Cr  0.57565911  0.49674336  0.32045320     1.93740
Cr724      Cr  0.53471591  0.03518952  0.38254572     1.93210
Cr725      Cr  0.99623325  0.07614313  0.32044641     1.39100
O726        O  0.53632091  0.03681770  0.34113788    -1.24540
O727        O  0.63287307  0.19310021  0.30954459    -0.86790
O728        O  0.63077012  0.27294010  0.35422036    -0.83840
C729        C  0.61751555  0.25258628  0.37887704     0.96670
O730        O  0.64262243  0.21721574  0.39008669    -0.83870
O731        O  0.71671791  0.14308536  0.39006054    -0.86510
C732        C  0.75212843  0.11800909  0.37888284     1.01200
O733        O  0.77253296  0.13130505  0.35425148    -0.79280
O734        O  0.69261157  0.13332907  0.30960344    -0.79460
C735        C  0.64586913  0.14634617  0.30817356     1.01150
O736        O  0.70471600  0.26192819  0.27867685    -0.86790
O737        O  0.71950657  0.31299716  0.33267619    -0.83850
C738        C  0.73029537  0.32076270  0.36109062     0.96690
O739        O  0.71900619  0.28981641  0.38216487    -0.83880
O740        O  0.78935384  0.21946262  0.38213610    -0.86480
C741        C  0.82027182  0.23079562  0.36105469     1.01160
O742        O  0.81247849  0.22003833  0.33263794    -0.79300
O743        O  0.76132546  0.20507631  0.27863309    -0.79450
C744        C  0.74109396  0.24156903  0.26597972     1.01130
Cr745      Cr  0.67529935  0.25520580  0.32044451     1.93740
Cr746      Cr  0.71625997  0.21672928  0.38254360     1.93210
Cr747      Cr  0.75470169  0.17578233  0.32045056     1.39100
O748        O  0.71462804  0.21512127  0.34113575    -1.24540
O749        O  0.80832966  0.36860779  0.19233470    -0.86790
O750        O  0.72842130  0.37069574  0.14768573    -0.83920
C751        C  0.74879723  0.38398022  0.12304252     0.96670
O752        O  0.78418743  0.35889374  0.11184885    -0.83870
O753        O  0.85828421  0.28476466  0.11182391    -0.86510
C754        C  0.88338052  0.24937332  0.12301737     1.01200
O755        O  0.87011404  0.22899035  0.14766194    -0.79280
O756        O  0.86807484  0.30884323  0.19233702    -0.79460
C757        C  0.85507599  0.35559342  0.19373635     1.01150
O758        O  0.73959191  0.29681770  0.22326727    -0.86790
O759        O  0.68842883  0.28195255  0.16926947    -0.83850
C760        C  0.68063289  0.27119800  0.14085282     0.96690
O761        O  0.71155212  0.28252887  0.11977248    -0.83880
O762        O  0.78188791  0.21216311  0.11974568    -0.86480
C763        C  0.77059572  0.18121803  0.14082083     1.01160
O764        O  0.78138691  0.18898065  0.16923545    -0.79300
O765        O  0.79627463  0.24003879  0.22324225    -0.79450
C766        C  0.75986464  0.26035687  0.23593000     1.01130
Cr767      Cr  0.74622402  0.32617912  0.18147108     1.93740
Cr768      Cr  0.78464517  0.28525118  0.11936615     1.93210
Cr769      Cr  0.82562391  0.24675327  0.18145329     1.39100
O770        O  0.78628726  0.28684848  0.16077400    -1.24540
O771        O  0.94260231  0.38336956  0.19233578    -0.86790
O772        O  0.52245323  0.38132573  0.14765987    -0.83840
C773        C  0.00206540  0.36805662  0.12301594     0.96670
O774        O  0.96667277  0.39315276  0.11182254    -0.83870
O775        O  0.89254383  0.46724823  0.11184660    -0.86510
C776        C  0.86745961  0.50263941  0.12303995     1.01200
O777        O  0.88074651  0.02301594  0.14768310    -0.79280
O778        O  0.88283484  0.44311207  0.19233210    -0.79460
C779        C  0.89585044  0.39636772  0.19373530     1.01150
O780        O  0.51140727  0.45517150  0.22324123    -0.86790
O781        O  0.56246424  0.47005471  0.16923415    -0.83850
C782        C  0.57022368  0.48084327  0.14081952     0.96690
O783        O  0.53927779  0.46954516  0.11974441    -0.83880
O784        O  0.96891353  0.03988273  0.11976987    -0.86480
C785        C  0.98024387  0.07080411  0.14085013     1.01160
O786        O  0.96949133  0.06300953  0.16926695    -0.79300
O787        O  0.95462464  0.01185062  0.22326510    -0.79450
C788        C  0.49109061  0.99157448  0.23592924     1.01130
Cr789      Cr  0.50469242  0.42581854  0.18145163     1.93740
Cr790      Cr  0.96618853  0.46679051  0.11936425     1.93210
Cr791      Cr  0.92526401  0.00521580  0.18146868     1.39100
O792        O  0.96459410  0.46515198  0.16077208    -1.24540
O793        O  0.88286039  0.30882983  0.44231459    -0.86790
O794        O  0.88080270  0.22895245  0.39765126    -0.83840
C795        C  0.86751994  0.24933667  0.37300755     0.96670
O796        O  0.89260845  0.28472804  0.36181383    -0.83870
O797        O  0.96671854  0.35883616  0.36181348    -0.86510
C798        C  0.00210660  0.38392889  0.37301068     1.01200
O799        O  0.52248885  0.37065077  0.39765679    -0.79280
O800        O  0.94261907  0.36858208  0.44232250    -0.79460
C801        C  0.89587005  0.35557563  0.44372662     1.01150
O802        O  0.95464278  0.24007017  0.47324246    -0.86790
O803        O  0.96953944  0.18895409  0.41924475    -0.83850
C804        C  0.98031135  0.18117560  0.39083045     0.96690
O805        O  0.96899273  0.21210712  0.36974995    -0.83880
O806        O  0.53934108  0.28245887  0.36974937    -0.86480
C807        C  0.57027444  0.27113940  0.39082934     1.01160
O808        O  0.56249957  0.28191290  0.41924352    -0.79300
O809        O  0.51138856  0.29678637  0.47324014    -0.79450
C810        C  0.49107890  0.26036779  0.48592076     1.01130
Cr811      Cr  0.92530094  0.24673565  0.43144481     1.93740
Cr812      Cr  0.96625004  0.28519741  0.36935017     1.93210
Cr813      Cr  0.50471604  0.32614562  0.43144753     1.39100
O814        O  0.96463197  0.28681728  0.41075815    -1.24540
O815        O  0.86810034  0.44309867  0.44235390    -0.86790
O816        O  0.87016957  0.02297854  0.39769342    -0.83840
C817        C  0.88344010  0.50260347  0.37304939     0.96670
O818        O  0.85834802  0.46721241  0.36185623    -0.83870
O819        O  0.78423294  0.39309579  0.36185749    -0.86510
C820        C  0.74883834  0.36800570  0.37304734     1.01200
O821        O  0.72845669  0.38128100  0.39768836    -0.79280
O822        O  0.80834640  0.38334374  0.44234741    -0.79460
C823        C  0.85509559  0.39634989  0.44374437     1.01150
O824        O  0.79629290  0.01188151  0.47326478    -0.86790
O825        O  0.78143472  0.06298299  0.41925779    -0.83850
C826        C  0.77066270  0.07076190  0.39084069     0.96690
O827        O  0.78196618  0.03982706  0.36976566    -0.83880
O828        O  0.71161472  0.46947516  0.36976753    -0.86480
C829        C  0.68068305  0.48078442  0.39084312     1.01160
O830        O  0.68846378  0.47001473  0.41926019    -0.79300
O831        O  0.73957318  0.45513968  0.47326824    -0.79450
C832        C  0.75985293  0.99158487  0.48593837     1.01130
Cr833      Cr  0.82566060  0.00519816  0.43147693     1.93740
Cr834      Cr  0.78470599  0.46673720  0.36938002     1.93210
Cr835      Cr  0.74624745  0.42578485  0.43147493     1.39100
O836        O  0.78632472  0.46512093  0.41078770    -1.24540
O837        O  0.55829159  0.13339138  0.05958442    -0.86790
O838        O  0.97841517  0.13132532  0.10424613    -0.83840
C839        C  0.49878870  0.11805217  0.12889619     0.96670
O840        O  0.53417534  0.14314717  0.14009484    -0.83870
O841        O  0.60829319  0.21726272  0.14009451    -0.86510
C842        C  0.63338431  0.25265207  0.12889895     1.01200
O843        O  0.62010687  0.27302697  0.10425100    -0.79280
O844        O  0.61804998  0.19314340  0.05959156    -0.79460
C845        C  0.60504057  0.14639756  0.05818124     1.01150
O846        O  0.98952488  0.20518398  0.02866080    -0.86790
O847        O  0.93840609  0.22005927  0.08265361    -0.83850
C848        C  0.93062715  0.23083528  0.11106686     0.96690
O849        O  0.96156050  0.21952608  0.13214871    -0.83880
O850        O  0.53190799  0.28987636  0.13214818    -0.86480
C851        C  0.52059964  0.32080790  0.11106584     1.01160
O852        O  0.53137394  0.31302525  0.08265246    -0.79300
O853        O  0.54626979  0.26190115  0.02865873    -0.79450
C854        C  0.00983460  0.24160249  0.01598010     1.01130
Cr855      Cr  0.99619337  0.17582860  0.07045479     1.93740
Cr856      Cr  0.53465054  0.21678703  0.13255254     1.93210
Cr857      Cr  0.57560950  0.25523935  0.07045722     1.39100
O858        O  0.53627458  0.21516092  0.09114451    -1.24540
O859        O  0.69256426  0.11862954  0.05956463    -0.86790
O860        O  0.77244700  0.12069542  0.10422782    -0.83840
C861        C  0.75205685  0.13397579  0.12886494     0.96670
O862        O  0.71666073  0.10888809  0.14005339    -0.83870
O863        O  0.64255283  0.03477908  0.14005463    -0.86510
C864        C  0.61746338  0.99938591  0.12886340     1.01200
O865        O  0.63073933  0.47900133  0.10422361    -0.79280
O866        O  0.63280988  0.05887453  0.05955901    -0.79460
C867        C  0.64581499  0.10562323  0.05816673     1.01150
O868        O  0.76134039  0.04682982  0.02865036    -0.86790
O869        O  0.81244152  0.03195716  0.08266241    -0.83850
C870        C  0.82021795  0.02119003  0.11108044     0.96690
O871        O  0.78928621  0.03250984  0.13215405    -0.83880
O872        O  0.71893358  0.46215668  0.13215586    -0.86480
C873        C  0.73024775  0.43122180  0.11108278     1.01160
O874        O  0.71947827  0.43899639  0.08266471    -0.79300
O875        O  0.70461962  0.49008935  0.02865348    -0.79450
C876        C  0.74106064  0.51038468  0.01598029     1.01130
Cr877      Cr  0.75466179  0.07618912  0.07044209     1.93740
Cr878      Cr  0.71619392  0.03524765  0.13253669     1.93210
Cr879      Cr  0.67524954  0.49677684  0.07044042     1.39100
O880        O  0.71458141  0.03685737  0.09112903    -1.24540
O881        O  0.61811294  0.05883141  0.80960615    -0.86790
O882        O  0.62013729  0.47891446  0.85425427    -0.83840
C883        C  0.63343586  0.99931972  0.87888548     0.96670
O884        O  0.60836197  0.03473127  0.89006287    -0.83870
O885        O  0.53423233  0.10882562  0.89008810    -0.86510
C886        C  0.49886047  0.13393232  0.87887862     1.01200
O887        O  0.97850138  0.12067502  0.85422274    -0.79280
O888        O  0.55833893  0.11856730  0.80954592    -0.79460
C889        C  0.60509464  0.10557188  0.80817467     1.01150
O890        O  0.54636592  0.49011681  0.77863548    -0.86790
O891        O  0.53140216  0.43896811  0.83264078    -0.83850
C892        C  0.52064688  0.43117628  0.86105772     0.96690
O893        O  0.53197956  0.46209642  0.88213900    -0.83880
O894        O  0.96162752  0.03244619  0.88216653    -0.86480
C895        C  0.93068042  0.02115068  0.86109238     1.01160
O896        O  0.93844268  0.03193671  0.83267791    -0.79300
O897        O  0.98951019  0.04672265  0.77867816    -0.79450
C898        C  0.00986798  0.51035164  0.76598076     1.01130
Cr899      Cr  0.57565911  0.49674327  0.82045316     1.93740
Cr900      Cr  0.53471593  0.03518942  0.88254572     1.93210
Cr901      Cr  0.99623320  0.07614309  0.82044644     1.39100
O902        O  0.53632090  0.03681763  0.84113788    -1.24540
O903        O  0.63287299  0.19310018  0.80954470    -0.86790
O904        O  0.63077024  0.27294020  0.85422042    -0.83840
C905        C  0.61751560  0.25258629  0.87887706     0.96670
O906        O  0.64262243  0.21721568  0.89008666    -0.83870
O907        O  0.71671794  0.14308532  0.89006061    -0.86510
C908        C  0.75212837  0.11800899  0.87888286     1.01200
O909        O  0.77253280  0.13130487  0.85425146    -0.79280
O910        O  0.69261154  0.13332908  0.80960337    -0.79460
C911        C  0.64586908  0.14634616  0.80817357     1.01150
O912        O  0.70471575  0.26192798  0.77867680    -0.86790
O913        O  0.71950668  0.31299705  0.83267614    -0.83850
C914        C  0.73029545  0.32076262  0.86109058     0.96690
O915        O  0.71900623  0.28981635  0.88216483    -0.83880
O916        O  0.78935385  0.21946254  0.88213616    -0.86480
C917        C  0.82027186  0.23079548  0.86105475     1.01160
O918        O  0.81247855  0.22003815  0.83263801    -0.79300
O919        O  0.76132560  0.20507648  0.77863317    -0.79450
C920        C  0.74109390  0.24156903  0.76597974     1.01130
Cr921      Cr  0.67529934  0.25520572  0.82044454     1.93740
Cr922      Cr  0.71625998  0.21672922  0.88254362     1.93210
Cr923      Cr  0.75470170  0.17578226  0.82045057     1.39100
O924        O  0.71462806  0.21512119  0.84113576    -1.24540
O925        O  0.80832958  0.36860780  0.69233474    -0.86790
O926        O  0.72842122  0.37069578  0.64768578    -0.83920
C927        C  0.74879714  0.38398025  0.62304256     0.96670
O928        O  0.78418732  0.35889377  0.61184888    -0.83870
O929        O  0.85828411  0.28476466  0.61182393    -0.86510
C930        C  0.88338042  0.24937331  0.62301738     1.01200
O931        O  0.87011394  0.22899035  0.64766195    -0.79280
O932        O  0.86807477  0.30884324  0.69233701    -0.79460
C933        C  0.85507592  0.35559344  0.69373637     1.01150
O934        O  0.73959178  0.29681767  0.72326729    -0.86790
O935        O  0.68842873  0.28195259  0.66926949    -0.83850
C936        C  0.68063278  0.27119804  0.64085285     0.96690
O937        O  0.71155201  0.28252890  0.61977250    -0.83880
O938        O  0.78188780  0.21216313  0.61974571    -0.86480
C939        C  0.77059564  0.18121804  0.64082086     1.01160
O940        O  0.78138683  0.18898068  0.66923549    -0.79300
O941        O  0.79627460  0.24003886  0.72324228    -0.79450
C942        C  0.75986456  0.26035688  0.73593003     1.01130
Cr943      Cr  0.74622392  0.32617914  0.68147111     1.93740
Cr944      Cr  0.78464507  0.28525120  0.61936618     1.93210
Cr945      Cr  0.82562383  0.24675329  0.68145331     1.39100
O946        O  0.78628717  0.28684849  0.66077402    -1.24540
O947        O  0.94260223  0.38336953  0.69233572    -0.86790
O948        O  0.52245320  0.38132579  0.64765984    -0.83840
C949        C  0.00206531  0.36805664  0.62301592     0.96670
O950        O  0.96667264  0.39315276  0.61182256    -0.83870
O951        O  0.89254375  0.46724827  0.61184656    -0.86510
C952        C  0.86745951  0.50263940  0.62303994     1.01200
O953        O  0.88074644  0.02301599  0.64768306    -0.79280
O954        O  0.88283480  0.44311209  0.69233216    -0.79460
C955        C  0.89585037  0.39636772  0.69373530     1.01150
O956        O  0.51140707  0.45517138  0.72324126    -0.86790
O957        O  0.56246412  0.47005476  0.66923418    -0.83850
C958        C  0.57022358  0.48084331  0.64081955     0.96690
O959        O  0.53927770  0.46954515  0.61974443    -0.83880
O960        O  0.96891345  0.03988274  0.61976985    -0.86480
C961        C  0.98024380  0.07080412  0.64085010     1.01160
O962        O  0.96949127  0.06300955  0.66926693    -0.79300
O963        O  0.95462450  0.01185066  0.72326510    -0.79450
C964        C  0.49109052  0.99157452  0.73592922     1.01130
Cr965      Cr  0.50469231  0.42581854  0.68145162     1.93740
Cr966      Cr  0.96618845  0.46679051  0.61936424     1.93210
Cr967      Cr  0.92526391  0.00521584  0.68146866     1.39100
O968        O  0.96459400  0.46515199  0.66077207    -1.24540
O969        O  0.88286038  0.30882971  0.94231459    -0.86790
O970        O  0.88080277  0.22895226  0.89765129    -0.83840
C971        C  0.86751998  0.24933652  0.87300760     0.96670
O972        O  0.89260846  0.28472793  0.86181390    -0.83870
O973        O  0.96671855  0.35883608  0.86181351    -0.86510
C974        C  0.00210660  0.38392883  0.87301072     1.01200
O975        O  0.52248877  0.37065075  0.89765686    -0.79280
O976        O  0.94261907  0.36858196  0.94232256    -0.79460
C977        C  0.89587005  0.35557551  0.94372664     1.01150
O978        O  0.95464273  0.24007011  0.97324252    -0.86790
O979        O  0.96953952  0.18895401  0.91924481    -0.83850
C980        C  0.98031142  0.18117552  0.89083050     0.96690
O981        O  0.96899279  0.21210704  0.86975001    -0.83880
O982        O  0.53934111  0.28245879  0.86974939    -0.86480
C983        C  0.57027449  0.27113937  0.89082935     1.01160
O984        O  0.56249961  0.28191289  0.91924352    -0.79300
O985        O  0.51138863  0.29678612  0.97324013    -0.79450
C986        C  0.49107886  0.26036764  0.98592078     1.01130
Cr987      Cr  0.92530097  0.24673555  0.93144484     1.93740
Cr988      Cr  0.96625007  0.28519733  0.86935022     1.93210
Cr989      Cr  0.50471605  0.32614552  0.93144757     1.39100
O990        O  0.96463200  0.28681720  0.91075819    -1.24540
O991        O  0.86810037  0.44309854  0.94235387    -0.86790
O992        O  0.87016954  0.02297850  0.89769344    -0.83840
C993        C  0.88344017  0.50260337  0.87304938     0.96670
O994        O  0.85834810  0.46721231  0.86185622    -0.83870
O995        O  0.78423301  0.39309571  0.86185744    -0.86510
C996        C  0.74883841  0.36800562  0.87304729     1.01200
O997        O  0.72845676  0.38128091  0.89768831    -0.79280
O998        O  0.80834640  0.38334364  0.94234740    -0.79460
C999        C  0.85509560  0.39634978  0.94374436     1.01150
O1000       O  0.79629292  0.01188129  0.97326481    -0.86790
O1001       O  0.78143465  0.06298287  0.91925783    -0.83850
C1002       C  0.77066267  0.07076179  0.89084073     0.96690
O1003       O  0.78196619  0.03982697  0.86976569    -0.83880
O1004       O  0.71161479  0.46947509  0.86976747    -0.86480
C1005       C  0.68068312  0.48078435  0.89084306     1.01160
O1006       O  0.68846382  0.47001465  0.91926012    -0.79300
O1007       O  0.73957314  0.45513964  0.97326818    -0.79450
C1008       C  0.75985289  0.99158472  0.98593837     1.01130
Cr1009     Cr  0.82566058  0.00519804  0.93147694     1.93740
Cr1010     Cr  0.78470606  0.46673712  0.86937999     1.93210
Cr1011     Cr  0.74624747  0.42578477  0.93147488     1.39100
O1012       O  0.78632477  0.46512083  0.91078767    -1.24540
O1013       O  0.55829158  0.13339150  0.55958435    -0.86790
O1014       O  0.97841516  0.13132530  0.60424607    -0.83840
C1015       C  0.49878865  0.11805218  0.62889614     0.96670
O1016       O  0.53417525  0.14314719  0.64009482    -0.83870
O1017       O  0.60829309  0.21726275  0.64009450    -0.86510
C1018       C  0.63338419  0.25265214  0.62889897     1.01200
O1019       O  0.62010674  0.27302709  0.60425105    -0.79280
O1020       O  0.61804997  0.19314352  0.55959160    -0.79460
C1021       C  0.60504057  0.14639768  0.55818123     1.01150
O1022       O  0.98952478  0.20518415  0.52866080    -0.86790
O1023       O  0.93840598  0.22005926  0.58265361    -0.83850
C1024       C  0.93062704  0.23083526  0.61106686     0.96690
O1025       O  0.96156041  0.21952607  0.63214870    -0.83880
O1026       O  0.53190786  0.28987638  0.63214818    -0.86480
C1027       C  0.52059953  0.32080793  0.61106584     1.01160
O1028       O  0.53137383  0.31302529  0.58265246    -0.79300
O1029       O  0.54626986  0.26190124  0.52865871    -0.79450
C1030       C  0.00983459  0.24160259  0.51598007     1.01130
Cr1031     Cr  0.99619330  0.17582864  0.57045476     1.93740
Cr1032     Cr  0.53465044  0.21678705  0.63255253     1.93210
Cr1033     Cr  0.57560945  0.25523943  0.57045724     1.39100
O1034       O  0.53627451  0.21516097  0.59114450    -1.24540
O1035       O  0.69256425  0.11862968  0.55956471    -0.86790
O1036       O  0.77244704  0.12069539  0.60422789    -0.83840
C1037       C  0.75205681  0.13397579  0.62886498     0.96670
O1038       O  0.71666064  0.10888812  0.64005338    -0.83870
O1039       O  0.64255276  0.03477909  0.64005465    -0.86510
C1040       C  0.61746327  0.99938599  0.62886337     1.01200
O1041       O  0.63073919  0.47900144  0.60422361    -0.79280
O1042       O  0.63280990  0.05887464  0.55955892    -0.79460
C1043       C  0.64581499  0.10562336  0.55816672     1.01150
O1044       O  0.76134027  0.04683009  0.52865031    -0.86790
O1045       O  0.81244143  0.03195716  0.58266238    -0.83850
C1046       C  0.82021787  0.02119003  0.61108041     0.96690
O1047       O  0.78928613  0.03250985  0.63215403    -0.83880
O1048       O  0.71893350  0.46215671  0.63215591    -0.86480
C1049       C  0.73024764  0.43122183  0.61108283     1.01160
O1050       O  0.71947815  0.43899640  0.58266476    -0.79300
O1051       O  0.70461968  0.49008933  0.52865354    -0.79450
C1052       C  0.74106061  0.51038478  0.51598032     1.01130
Cr1053     Cr  0.75466174  0.07618920  0.57044211     1.93740
Cr1054     Cr  0.71619384  0.03524767  0.63253668     1.93210
Cr1055     Cr  0.67524947  0.49677688  0.57044044     1.39100
O1056       O  0.71458134  0.03685742  0.59112903    -1.24540
O1057       O  0.61811302  0.55883141  0.30960624    -0.86790
O1058       O  0.62013726  0.97891456  0.35425431    -0.83840
C1059       C  0.63343581  0.49931976  0.37888553     0.96670
O1060       O  0.60836194  0.53473136  0.39006289    -0.83870
O1061       O  0.53423228  0.60882570  0.39008812    -0.86510
C1062       C  0.49886048  0.63393243  0.37887859     1.01200
O1063       O  0.97850148  0.62067516  0.35422267    -0.79280
O1064       O  0.55833899  0.61856728  0.30954585    -0.79460
C1065       C  0.60509471  0.60557187  0.30817468     1.01150
O1066       O  0.54636597  0.99011691  0.27863548    -0.86790
O1067       O  0.53140216  0.93896821  0.33264078    -0.83850
C1068       C  0.52064687  0.93117638  0.36105772     0.96690
O1069       O  0.53197953  0.96209652  0.38213901    -0.83880
O1070       O  0.96162750  0.53244628  0.38216652    -0.86480
C1071       C  0.93068039  0.52115079  0.36109238     1.01160
O1072       O  0.93844267  0.53193683  0.33267791    -0.79300
O1073       O  0.98951018  0.54672251  0.27867819    -0.79450
C1074       C  0.00986799  0.01035171  0.26598077     1.01130
Cr1075     Cr  0.57565911  0.99674337  0.32045318     1.93740
Cr1076     Cr  0.53471589  0.53518950  0.38254573     1.93210
Cr1077     Cr  0.99623323  0.57614313  0.32044640     1.39100
O1078       O  0.53632090  0.53681770  0.34113789    -1.24540
O1079       O  0.63287308  0.69310018  0.30954459    -0.86790
O1080       O  0.63077011  0.77294010  0.35422035    -0.83840
C1081       C  0.61751554  0.75258630  0.37887703     0.96670
O1082       O  0.64262242  0.71721577  0.39008669    -0.83870
O1083       O  0.71671790  0.64308540  0.39006057    -0.86510
C1084       C  0.75212841  0.61800911  0.37888287     1.01200
O1085       O  0.77253295  0.63130506  0.35425152    -0.79280
O1086       O  0.69261160  0.63332905  0.30960346    -0.79460
C1087       C  0.64586915  0.64634615  0.30817357     1.01150
O1088       O  0.70471600  0.76192815  0.27867685    -0.86790
O1089       O  0.71950655  0.81299716  0.33267617    -0.83850
C1090       C  0.73029535  0.82076272  0.36109060     0.96690
O1091       O  0.71900618  0.78981643  0.38216486    -0.83880
O1092       O  0.78935383  0.71946265  0.38213612    -0.86480
C1093       C  0.82027182  0.73079563  0.36105471     1.01160
O1094       O  0.81247850  0.72003833  0.33263796    -0.79300
O1095       O  0.76132549  0.70507631  0.27863311    -0.79450
C1096       C  0.74109398  0.74156901  0.26597973     1.01130
Cr1097     Cr  0.67529934  0.75520578  0.32044451     1.93740
Cr1098     Cr  0.71625996  0.71672931  0.38254361     1.93210
Cr1099     Cr  0.75470170  0.67578233  0.32045059     1.39100
O1100       O  0.71462804  0.71512127  0.34113576    -1.24540
O1101       O  0.80832967  0.86860779  0.19233472    -0.86790
O1102       O  0.72842133  0.87069575  0.14768575    -0.83920
C1103       C  0.74879725  0.88398022  0.12304253     0.96670
O1104       O  0.78418744  0.85889374  0.11184887    -0.83870
O1105       O  0.85828421  0.78476464  0.11182392    -0.86510
C1106       C  0.88338053  0.74937330  0.12301737     1.01200
O1107       O  0.87011405  0.72899035  0.14766196    -0.79280
O1108       O  0.86807485  0.80884323  0.19233703    -0.79460
C1109       C  0.85507600  0.85559343  0.19373637     1.01150
O1110       O  0.73959192  0.79681767  0.22326729    -0.86790
O1111       O  0.68842884  0.78195256  0.16926949    -0.83850
C1112       C  0.68063289  0.77119802  0.14085284     0.96690
O1113       O  0.71155212  0.78252888  0.11977249    -0.83880
O1114       O  0.78188790  0.71216311  0.11974570    -0.86480
C1115       C  0.77059574  0.68121803  0.14082084     1.01160
O1116       O  0.78138694  0.68898065  0.16923547    -0.79300
O1117       O  0.79627467  0.74003879  0.22324227    -0.79450
C1118       C  0.75986466  0.76035685  0.23593002     1.01130
Cr1119     Cr  0.74622403  0.82617912  0.18147110     1.93740
Cr1120     Cr  0.78464518  0.78525118  0.11936617     1.93210
Cr1121     Cr  0.82562393  0.74675327  0.18145331     1.39100
O1122       O  0.78628727  0.78684848  0.16077401    -1.24540
O1123       O  0.94260231  0.88336956  0.19233577    -0.86790
O1124       O  0.52245320  0.88132572  0.14765988    -0.83840
C1125       C  0.00206540  0.86805663  0.12301595     0.96670
O1126       O  0.96667276  0.89315275  0.11182256    -0.83870
O1127       O  0.89254382  0.96724826  0.11184659    -0.86510
C1128       C  0.86745959  0.00263942  0.12303995     1.01200
O1129       O  0.88074654  0.52301596  0.14768308    -0.79280
O1130       O  0.88283485  0.94311209  0.19233213    -0.79460
C1131       C  0.89585044  0.89636773  0.19373531     1.01150
O1132       O  0.51140720  0.95517150  0.22324124    -0.86790
O1133       O  0.56246421  0.97005470  0.16923418    -0.83850
C1134       C  0.57022366  0.98084326  0.14081955     0.96690
O1135       O  0.53927777  0.96954515  0.11974443    -0.83880
O1136       O  0.96891352  0.53988273  0.11976988    -0.86480
C1137       C  0.98024388  0.57080410  0.14085014     1.01160
O1138       O  0.96949136  0.56300950  0.16926697    -0.79300
O1139       O  0.95462459  0.51185055  0.22326512    -0.79450
C1140       C  0.49109065  0.49157447  0.23592923     1.01130
Cr1141     Cr  0.50469238  0.92581853  0.18145164     1.93740
Cr1142     Cr  0.96618853  0.96679051  0.11936426     1.93210
Cr1143     Cr  0.92526401  0.50521578  0.18146868     1.39100
O1144       O  0.96459408  0.96515199  0.16077209    -1.24540
O1145       O  0.88286035  0.80882978  0.44231458    -0.86790
O1146       O  0.88080274  0.72895238  0.39765125    -0.83840
C1147       C  0.86751995  0.74933666  0.37300756     0.96670
O1148       O  0.89260844  0.78472806  0.36181387    -0.83870
O1149       O  0.96671855  0.85883618  0.36181352    -0.86510
C1150       C  0.00210660  0.88392891  0.37301073     1.01200
O1151       O  0.52248881  0.87065082  0.39765684    -0.79280
O1152       O  0.94261903  0.86858204  0.44232255    -0.79460
C1153       C  0.89587001  0.85557558  0.44372663     1.01150
O1154       O  0.95464271  0.74007015  0.47324249    -0.86790
O1155       O  0.96953948  0.68895408  0.41924477    -0.83850
C1156       C  0.98031138  0.68117561  0.39083046     0.96690
O1157       O  0.96899274  0.71210713  0.36974998    -0.83880
O1158       O  0.53934107  0.78245889  0.36974938    -0.86480
C1159       C  0.57027445  0.77113943  0.39082934     1.01160
O1160       O  0.56249959  0.78191295  0.41924351    -0.79300
O1161       O  0.51138861  0.79678629  0.47324013    -0.79450
C1162       C  0.49107888  0.76036777  0.48592077     1.01130
Cr1163     Cr  0.92530093  0.74673562  0.43144481     1.93740
Cr1164     Cr  0.96625004  0.78519743  0.36935020     1.93210
Cr1165     Cr  0.50471604  0.82614562  0.43144756     1.39100
O1166       O  0.96463196  0.78681728  0.41075818    -1.24540
O1167       O  0.86810030  0.94309862  0.44235391    -0.86790
O1168       O  0.87016952  0.52297864  0.39769343    -0.83840
C1169       C  0.88344014  0.00260340  0.37304936     0.96670
O1170       O  0.85834804  0.96721238  0.36185619    -0.83870
O1171       O  0.78423294  0.89309578  0.36185748    -0.86510
C1172       C  0.74883830  0.86800572  0.37304731     1.01200
O1173       O  0.72845662  0.88128105  0.39768831    -0.79280
O1174       O  0.80834636  0.88334369  0.44234736    -0.79460
C1175       C  0.85509555  0.89634984  0.44374436     1.01150
O1176       O  0.79629297  0.51188148  0.47326483    -0.86790
O1177       O  0.78143466  0.56298300  0.41925783    -0.83850
C1178       C  0.77066265  0.57076191  0.39084074     0.96690
O1179       O  0.78196613  0.53982707  0.36976570    -0.83880
O1180       O  0.71161474  0.96947518  0.36976751    -0.86480
C1181       C  0.68068308  0.98078447  0.39084311     1.01160
O1182       O  0.68846380  0.97001480  0.41926017    -0.79300
O1183       O  0.73957321  0.95513962  0.47326823    -0.79450
C1184       C  0.75985295  0.49158490  0.48593839     1.01130
Cr1185     Cr  0.82566059  0.50519818  0.43147694     1.93740
Cr1186     Cr  0.78470601  0.96673719  0.36937999     1.93210
Cr1187     Cr  0.74624744  0.92578486  0.43147489     1.39100
O1188       O  0.78632474  0.96512092  0.41078768    -1.24540
O1189       O  0.55829167  0.63339147  0.05958437    -0.86790
O1190       O  0.97841520  0.63132530  0.10424613    -0.83840
C1191       C  0.49878875  0.61805217  0.12889617     0.96670
O1192       O  0.53417535  0.64314718  0.14009484    -0.83870
O1193       O  0.60829320  0.71726273  0.14009450    -0.86510
C1194       C  0.63338430  0.75265211  0.12889897     1.01200
O1195       O  0.62010685  0.77302706  0.10425104    -0.79280
O1196       O  0.61805006  0.69314349  0.05959160    -0.79460
C1197       C  0.60504065  0.64639764  0.05818123     1.01150
O1198       O  0.98952489  0.70518397  0.02866080    -0.86790
O1199       O  0.93840609  0.72005925  0.08265362    -0.83850
C1200       C  0.93062715  0.73083526  0.11106687     0.96690
O1201       O  0.96156051  0.71952607  0.13214871    -0.83880
O1202       O  0.53190798  0.78987637  0.13214818    -0.86480
C1203       C  0.52059962  0.82080792  0.11106584     1.01160
O1204       O  0.53137392  0.81302527  0.08265247    -0.79300
O1205       O  0.54626991  0.76190121  0.02865872    -0.79450
C1206       C  0.00983461  0.74160248  0.01598010     1.01130
Cr1207     Cr  0.99619339  0.67582859  0.07045480     1.93740
Cr1208     Cr  0.53465054  0.71678704  0.13255253     1.93210
Cr1209     Cr  0.57560953  0.75523940  0.07045724     1.39100
O1210       O  0.53627461  0.71516095  0.09114451    -1.24540
O1211       O  0.69256434  0.61862962  0.05956466    -0.86790
O1212       O  0.77244709  0.62069539  0.10422786    -0.83840
C1213       C  0.75205690  0.63397578  0.12886496     0.96670
O1214       O  0.71666075  0.60888809  0.14005339    -0.83870
O1215       O  0.64255285  0.53477909  0.14005462    -0.86510
C1216       C  0.61746338  0.49938595  0.12886338     1.01200
O1217       O  0.63073935  0.97900124  0.10422365    -0.79280
O1218       O  0.63280996  0.55887461  0.05955897    -0.79460
C1219       C  0.64581507  0.60562331  0.05816672     1.01150
O1220       O  0.76134044  0.54682993  0.02865034    -0.86790
O1221       O  0.81244155  0.53195715  0.08266241    -0.83850
C1222       C  0.82021797  0.52119002  0.11108044     0.96690
O1223       O  0.78928622  0.53250983  0.13215405    -0.83880
O1224       O  0.71893358  0.96215667  0.13215587    -0.86480
C1225       C  0.73024776  0.93122179  0.11108279     1.01160
O1226       O  0.71947828  0.93899637  0.08266472    -0.79300
O1227       O  0.70461950  0.99008931  0.02865348    -0.79450
C1228       C  0.74106056  0.01038460  0.01598030     1.01130
Cr1229     Cr  0.75466184  0.57618915  0.07044210     1.93740
Cr1230     Cr  0.71619394  0.53524765  0.13253668     1.93210
Cr1231     Cr  0.67524951  0.99677679  0.07044045     1.39100
O1232       O  0.71458145  0.53685740  0.09112903    -1.24540
O1233       O  0.61811297  0.55883135  0.80960615    -0.86790
O1234       O  0.62013728  0.97891450  0.85425426    -0.83840
C1235       C  0.63343589  0.49931972  0.87888547     0.96670
O1236       O  0.60836200  0.53473128  0.89006286    -0.83870
O1237       O  0.53423235  0.60882564  0.89008807    -0.86510
C1238       C  0.49886047  0.63393232  0.87887858     1.01200
O1239       O  0.97850147  0.62067504  0.85422269    -0.79280
O1240       O  0.55833897  0.61856725  0.80954591    -0.79460
C1241       C  0.60509468  0.60557182  0.80817466     1.01150
O1242       O  0.54636588  0.99011690  0.77863547    -0.86790
O1243       O  0.53140216  0.93896814  0.83264076    -0.83850
C1244       C  0.52064689  0.93117629  0.86105770     0.96690
O1245       O  0.53197954  0.96209642  0.88213899    -0.83880
O1246       O  0.96162756  0.53244620  0.88216651    -0.86480
C1247       C  0.93068046  0.52115070  0.86109236     1.01160
O1248       O  0.93844273  0.53193672  0.83267789    -0.79300
O1249       O  0.98951029  0.54672255  0.77867816    -0.79450
C1250       C  0.00986787  0.01035174  0.76598076     1.01130
Cr1251     Cr  0.57565909  0.99674332  0.82045316     1.93740
Cr1252     Cr  0.53471595  0.53518942  0.88254571     1.93210
Cr1253     Cr  0.99623328  0.57614306  0.82044641     1.39100
O1254       O  0.53632092  0.53681761  0.84113787    -1.24540
O1255       O  0.63287302  0.69310012  0.80954468    -0.86790
O1256       O  0.63077021  0.77294011  0.85422041    -0.83840
C1257       C  0.61751560  0.75258625  0.87887706     0.96670
O1258       O  0.64262245  0.71721566  0.89008668    -0.83870
O1259       O  0.71671795  0.64308531  0.89006060    -0.86510
C1260       C  0.75212841  0.61800899  0.87888286     1.01200
O1261       O  0.77253285  0.63130489  0.85425146    -0.79280
O1262       O  0.69261158  0.63332903  0.80960338    -0.79460
C1263       C  0.64586912  0.64634610  0.80817357     1.01150
O1264       O  0.70471578  0.76192797  0.77867681    -0.86790
O1265       O  0.71950663  0.81299703  0.83267614    -0.83850
C1266       C  0.73029542  0.82076260  0.86109057     0.96690
O1267       O  0.71900623  0.78981633  0.88216483    -0.83880
O1268       O  0.78935386  0.71946254  0.88213615    -0.86480
C1269       C  0.82027186  0.73079549  0.86105474     1.01160
O1270       O  0.81247855  0.72003817  0.83263800    -0.79300
O1271       O  0.76132560  0.70507644  0.77863316    -0.79450
C1272       C  0.74109391  0.74156901  0.76597974     1.01130
Cr1273     Cr  0.67529934  0.75520568  0.82044453     1.93740
Cr1274     Cr  0.71625999  0.71672921  0.88254362     1.93210
Cr1275     Cr  0.75470172  0.67578225  0.82045057     1.39100
O1276       O  0.71462807  0.71512117  0.84113576    -1.24540
O1277       O  0.80832955  0.86860782  0.69233475    -0.86790
O1278       O  0.72842122  0.87069578  0.64768576    -0.83920
C1279       C  0.74879713  0.88398024  0.62304254     0.96670
O1280       O  0.78418731  0.85889375  0.61184886    -0.83870
O1281       O  0.85828412  0.78476468  0.61182393    -0.86510
C1282       C  0.88338043  0.74937333  0.62301738     1.01200
O1283       O  0.87011395  0.72899038  0.64766196    -0.79280
O1284       O  0.86807476  0.80884330  0.69233701    -0.79460
C1285       C  0.85507589  0.85559348  0.69373637     1.01150
O1286       O  0.73959175  0.79681763  0.72326727    -0.86790
O1287       O  0.68842872  0.78195258  0.66926948    -0.83850
C1288       C  0.68063279  0.77119802  0.64085283     0.96690
O1289       O  0.71155202  0.78252887  0.61977249    -0.83880
O1290       O  0.78188783  0.71216312  0.61974573    -0.86480
C1291       C  0.77059566  0.68121805  0.64082088     1.01160
O1292       O  0.78138686  0.68898070  0.66923550    -0.79300
O1293       O  0.79627465  0.74003890  0.72324229    -0.79450
C1294       C  0.75986457  0.76035688  0.73593002     1.01130
Cr1295     Cr  0.74622391  0.82617914  0.68147110     1.93740
Cr1296     Cr  0.78464508  0.78525119  0.61936618     1.93210
Cr1297     Cr  0.82562385  0.74675333  0.68145332     1.39100
O1298       O  0.78628717  0.78684851  0.66077402    -1.24540
O1299       O  0.94260219  0.88336961  0.69233578    -0.86790
O1300       O  0.52245312  0.88132576  0.64765986    -0.83840
C1301       C  0.00206527  0.86805663  0.62301595     0.96670
O1302       O  0.96667265  0.89315276  0.61182256    -0.83870
O1303       O  0.89254373  0.96724826  0.61184657    -0.86510
C1304       C  0.86745951  0.00263943  0.62303992     1.01200
O1305       O  0.88074641  0.52301589  0.64768310    -0.79280
O1306       O  0.88283472  0.94311214  0.69233210    -0.79460
C1307       C  0.89585032  0.89636778  0.69373530     1.01150
O1308       O  0.51140711  0.95517153  0.72324123    -0.86790
O1309       O  0.56246412  0.97005474  0.66923415    -0.83850
C1310       C  0.57022357  0.98084329  0.64081952     0.96690
O1311       O  0.53927768  0.96954515  0.61974441    -0.83880
O1312       O  0.96891346  0.53988273  0.61976985    -0.86480
C1313       C  0.98024379  0.57080412  0.64085010     1.01160
O1314       O  0.96949125  0.56300954  0.66926692    -0.79300
O1315       O  0.95462468  0.51185066  0.72326507    -0.79450
C1316       C  0.49109058  0.49157445  0.73592923     1.01130
Cr1317     Cr  0.50469230  0.92581857  0.68145162     1.93740
Cr1318     Cr  0.96618843  0.96679052  0.61936424     1.93210
Cr1319     Cr  0.92526395  0.50521580  0.68146868     1.39100
O1320       O  0.96459398  0.96515201  0.66077207    -1.24540
O1321       O  0.88286038  0.80882967  0.94231459    -0.86790
O1322       O  0.88080279  0.72895225  0.89765127    -0.83840
C1323       C  0.86751999  0.74933653  0.87300758     0.96670
O1324       O  0.89260847  0.78472794  0.86181389    -0.83870
O1325       O  0.96671856  0.85883607  0.86181351    -0.86510
C1326       C  0.00210661  0.88392882  0.87301071     1.01200
O1327       O  0.52248888  0.87065071  0.89765681    -0.79280
O1328       O  0.94261905  0.86858194  0.94232255    -0.79460
C1329       C  0.89587003  0.85557548  0.94372663     1.01150
O1330       O  0.95464277  0.74007008  0.97324250    -0.86790
O1331       O  0.96953955  0.68895399  0.91924478    -0.83850
C1332       C  0.98031143  0.68117551  0.89083047     0.96690
O1333       O  0.96899278  0.71210703  0.86974998    -0.83880
O1334       O  0.53934112  0.78245879  0.86974939    -0.86480
C1335       C  0.57027449  0.77113935  0.89082936     1.01160
O1336       O  0.56249961  0.78191286  0.91924353    -0.79300
O1337       O  0.51138860  0.79678632  0.97324016    -0.79450
C1338       C  0.49107895  0.76036773  0.98592077     1.01130
Cr1339     Cr  0.92530099  0.74673552  0.93144483     1.93740
Cr1340     Cr  0.96625007  0.78519733  0.86935020     1.93210
Cr1341     Cr  0.50471607  0.82614556  0.93144755     1.39100
O1342       O  0.96463200  0.78681718  0.91075818    -1.24540
O1343       O  0.86810031  0.94309851  0.94235390    -0.86790
O1344       O  0.87016957  0.52297854  0.89769341    -0.83840
C1345       C  0.88344014  0.00260334  0.87304940     0.96670
O1346       O  0.85834806  0.96721229  0.86185623    -0.83870
O1347       O  0.78423298  0.89309569  0.86185745    -0.86510
C1348       C  0.74883837  0.86800560  0.87304728     1.01200
O1349       O  0.72845669  0.88128091  0.89768830    -0.79280
O1350       O  0.80834636  0.88334359  0.94234738    -0.79460
C1351       C  0.85509556  0.89634974  0.94374436     1.01150
O1352       O  0.79629304  0.51188132  0.97326482    -0.86790
O1353       O  0.78143470  0.56298288  0.91925783    -0.83850
C1354       C  0.77066270  0.57076180  0.89084073     0.96690
O1355       O  0.78196623  0.53982698  0.86976569    -0.83880
O1356       O  0.71161476  0.96947507  0.86976748    -0.86480
C1357       C  0.68068309  0.98078434  0.89084307     1.01160
O1358       O  0.68846379  0.97001463  0.91926013    -0.79300
O1359       O  0.73957311  0.95513953  0.97326820    -0.79450
C1360       C  0.75985297  0.49158479  0.98593836     1.01130
Cr1361     Cr  0.82566064  0.50519807  0.93147693     1.93740
Cr1362     Cr  0.78470603  0.96673710  0.86937999     1.93210
Cr1363     Cr  0.74624743  0.92578473  0.93147488     1.39100
O1364       O  0.78632473  0.96512080  0.91078768    -1.24540
O1365       O  0.55829159  0.63339151  0.55958435    -0.86790
O1366       O  0.97841510  0.63132532  0.60424609    -0.83840
C1367       C  0.49878865  0.61805217  0.62889614     0.96670
O1368       O  0.53417524  0.64314719  0.64009482    -0.83870
O1369       O  0.60829310  0.71726272  0.64009448    -0.86510
C1370       C  0.63338419  0.75265213  0.62889896     1.01200
O1371       O  0.62010672  0.77302711  0.60425105    -0.79280
O1372       O  0.61804998  0.69314353  0.55959162    -0.79460
C1373       C  0.60504058  0.64639769  0.55818124     1.01150
O1374       O  0.98952479  0.70518406  0.52866080    -0.86790
O1375       O  0.93840599  0.72005928  0.58265361    -0.83850
C1376       C  0.93062705  0.73083528  0.61106686     0.96690
O1377       O  0.96156041  0.71952608  0.63214870    -0.83880
O1378       O  0.53190789  0.78987638  0.63214817    -0.86480
C1379       C  0.52059952  0.82080793  0.61106583     1.01160
O1380       O  0.53137380  0.81302528  0.58265246    -0.79300
O1381       O  0.54626986  0.76190120  0.52865870    -0.79450
C1382       C  0.00983453  0.74160255  0.51598009     1.01130
Cr1383     Cr  0.99619329  0.67582863  0.57045478     1.93740
Cr1384     Cr  0.53465045  0.71678705  0.63255252     1.93210
Cr1385     Cr  0.57560944  0.75523943  0.57045724     1.39100
O1386       O  0.53627451  0.71516097  0.59114450    -1.24540
O1387       O  0.69256426  0.61862970  0.55956474    -0.86790
O1388       O  0.77244706  0.62069538  0.60422792    -0.83840
C1389       C  0.75205683  0.63397579  0.62886501     0.96670
O1390       O  0.71666066  0.60888813  0.64005341    -0.83870
O1391       O  0.64255277  0.53477910  0.64005468    -0.86510
C1392       C  0.61746328  0.49938601  0.62886340     1.01200
O1393       O  0.63073919  0.97900141  0.60422358    -0.79280
O1394       O  0.63280991  0.55887466  0.55955894    -0.79460
C1395       C  0.64581501  0.60562337  0.55816674     1.01150
O1396       O  0.76134028  0.54683012  0.52865034    -0.86790
O1397       O  0.81244144  0.53195715  0.58266241    -0.83850
C1398       C  0.82021788  0.52119002  0.61108044     0.96690
O1399       O  0.78928614  0.53250986  0.63215405    -0.83880
O1400       O  0.71893349  0.96215670  0.63215588    -0.86480
C1401       C  0.73024763  0.93122182  0.61108280     1.01160
O1402       O  0.71947815  0.93899639  0.58266473    -0.79300
O1403       O  0.70461965  0.99008931  0.52865351    -0.79450
C1404       C  0.74106059  0.01038475  0.51598029     1.01130
Cr1405     Cr  0.75466175  0.57618921  0.57044214     1.93740
Cr1406     Cr  0.71619385  0.53524768  0.63253671     1.93210
Cr1407     Cr  0.67524946  0.99677686  0.57044041     1.39100
O1408       O  0.71458135  0.53685744  0.59112906    -1.24540
loop_ 
_geom_bond_atom_site_label_1 
_geom_bond_atom_site_label_2 
_geom_bond_distance 
_geom_bond_site_symmetry_2 
_ccdc_geom_bond_type 
O1            C9   1.300       .  A
O1         Cr371   2.066   1_545  S
O2          C355   1.245       .  A
O2          Cr19   1.940       .  S
C3            O4   1.257   1_565  A
C3          O354   1.245       .  A
C3          C477   1.452       .  S
O4          Cr20   1.997       .  S
O5            C6   1.257   1_455  A
O5          Cr20   1.997       .  S
C6          O711   1.245       .  A
C6          C804   1.452       .  S
O7          C710   1.245       .  A
O7          Cr21   1.940       .  S
O8            C9   1.300       .  A
O8         Cr725   2.066   1_455  S
C9           C31   1.543       .  S
O10         C722   1.242       .  A
O10         Cr19   1.973       .  S
O11          C12   1.275       .  A
O11         Cr19   2.017       .  S
C12          O13   1.265       .  A
C12         C798   1.452       .  S
O13        Cr372   1.957       .  S
O14          C15   1.265       .  A
O14        Cr724   1.957       .  S
C15          O16   1.275       .  A
C15         C465   1.452       .  S
O16         Cr21   2.017       .  S
O17         C370   1.242       .  A
O17         Cr21   1.972       .  S
C18         O714   1.242       .  A
C18         O369   1.242       .  A
C18        C1140   1.477       .  S
Cr19        O353   2.066       .  S
Cr19        O374   1.747       .  S
Cr20        O365   1.957   1_545  S
Cr20        O718   1.957   1_455  S
Cr20         O22   1.785       .  S
Cr21        O712   2.066       .  S
Cr21        O726   1.747       .  S
O22        Cr371   1.747   1_545  S
O22        Cr725   1.747   1_455  S
O23          C31   1.300       .  A
O23         Cr41   2.066       .  S
O24          C25   1.245       .  A
O24         Cr41   1.940       .  S
C25          O26   1.257       .  A
C25         C103   1.452       .  S
O26         Cr42   1.997       .  S
O27          C28   1.257       .  A
O27         Cr42   1.997       .  S
C28          O29   1.245       .  A
C28         C122   1.452       .  S
O29         Cr43   1.940       .  S
O30          C31   1.300       .  A
O30         Cr43   2.066       .  S
O32          C40   1.242       .  A
O32         Cr41   1.972       .  S
O33          C34   1.275       .  A
O33         Cr41   2.017       .  S
C34          O35   1.265       .  A
C34         C116   1.452       .  S
O35         Cr42   1.957       .  S
O36          C37   1.265       .  A
O36         Cr42   1.957       .  S
C37          O38   1.275       .  A
C37          C91   1.452       .  S
O38         Cr43   2.017       .  S
O39          C40   1.242       .  A
O39         Cr43   1.973       .  S
C40          C62   1.477       .  S
Cr41         O44   1.747       .  S
Cr42         O44   1.785       .  S
Cr43         O44   1.747       .  S
O45          C53   1.300       .  A
O45         Cr63   2.066       .  S
O46          C47   1.245       .  A
O46         Cr63   1.940       .  S
C47          O48   1.257       .  A
C47         C169   1.452       .  S
O48         Cr64   1.997       .  S
O49          C50   1.257       .  A
O49         Cr64   1.997       .  S
C50          O51   1.245       .  A
C50         C144   1.452       .  S
O51         Cr65   1.940       .  S
O52          C53   1.300       .  A
O52         Cr65   2.066       .  S
C53          C75   1.543       .  S
O54          C62   1.242       .  A
O54         Cr63   1.973       .  S
O55          C56   1.275       .  A
O55         Cr63   2.017       .  S
C56          O57   1.265       .  A
C56         C138   1.452       .  S
O57         Cr64   1.957       .  S
O58          C59   1.265       .  A
O58         Cr64   1.957       .  S
C59          O60   1.275       .  A
C59         C157   1.452       .  S
O60         Cr65   2.017       .  S
O61          C62   1.242       .  A
O61         Cr65   1.973       .  S
Cr63         O66   1.747       .  S
Cr64         O66   1.785       .  S
Cr65         O66   1.747       .  S
O67          C75   1.300       .  A
O67        Cr789   2.066       .  S
O68         C773   1.245       .  A
O68         Cr85   1.940       .  S
C69          O70   1.257       .  A
C69         O772   1.245       .  A
C69         C851   1.452       .  S
O70         Cr86   1.997       .  S
O71          C72   1.257       .  A
O71         Cr86   1.997       .  S
C72         O425   1.245       .  A
C72         C518   1.452       .  S
O73         C424   1.245       .  A
O73         Cr87   1.940       .  S
O74          C75   1.300       .  A
O74        Cr439   2.066       .  S
O76         C436   1.242   1_455  A
O76         Cr85   1.973       .  S
O77          C78   1.275       .  A
O77         Cr85   2.017       .  S
C78          O79   1.265       .  A
C78         C512   1.452       .  S
O79        Cr790   1.957   1_455  S
O80          C81   1.265       .  A
O80        Cr438   1.957   1_545  S
C81          O82   1.275       .  A
C81         C839   1.452       .  S
O82         Cr87   2.017       .  S
O83         C788   1.242   1_545  A
O83         Cr87   1.973       .  S
C84         O428   1.242   1_655  A
C84         O787   1.242   1_565  A
C84        C1074   1.477   1_665  S
Cr85        O771   2.066   1_455  S
Cr85        O792   1.747   1_455  S
Cr86        O783   1.957       .  S
Cr86        O432   1.957       .  S
Cr86         O88   1.785       .  S
Cr87        O426   2.066   1_545  S
Cr87        O440   1.747   1_545  S
O88        Cr789   1.747       .  S
O88        Cr439   1.747       .  S
O89          C97   1.300       .  A
O89        Cr107   2.066       .  S
O90          C91   1.245       .  A
O90        Cr107   1.940       .  S
C91          O92   1.257       .  A
O92        Cr108   1.997       .  S
O93          C94   1.257       .  A
O93        Cr108   1.997       .  S
C94         O799   1.245       .  A
C94         C716   1.452       .  S
O95         C798   1.245       .  A
O95        Cr109   1.940       .  S
O96          C97   1.300       .  A
O96        Cr813   2.066       .  S
C97         C119   1.543       .  S
O98         C810   1.242       .  A
O98        Cr107   1.972       .  S
O99         C100   1.275       .  A
O99        Cr107   2.017       .  S
C100        O101   1.265       .  A
C100        C710   1.452       .  S
O101       Cr108   1.957       .  S
O102        C103   1.265       .  A
O102       Cr812   1.957   1_455  S
C103        O104   1.275       .  A
O104       Cr109   2.017       .  S
O105        C106   1.242   1_455  A
O105       Cr109   1.972       .  S
C106        O802   1.242       .  A
C106       C1030   1.477   1_655  S
Cr107       O110   1.747       .  S
Cr108       O806   1.957       .  S
Cr108       O110   1.785       .  S
Cr109       O800   2.066   1_455  S
Cr109       O814   1.747   1_455  S
O110       Cr813   1.747       .  S
O111        C119   1.300       .  A
O111       Cr481   2.066       .  S
O112        C465   1.245       .  A
O112       Cr129   1.940       .  S
C113        O114   1.257       .  A
C113        O464   1.245       .  A
C113        C367   1.452       .  S
O114       Cr130   1.997       .  S
O115        C116   1.257       .  A
O115       Cr130   1.997       .  S
C116        O117   1.245       .  A
O117       Cr131   1.940       .  S
O118        C119   1.300       .  A
O118       Cr131   2.066       .  S
O120        C128   1.242   1_545  A
O120       Cr129   1.973       .  S
O121        C122   1.275       .  A
O121       Cr129   2.017       .  S
C122        O123   1.265       .  A
O123       Cr482   1.957   1_545  S
O124        C125   1.265       .  A
O124       Cr130   1.957       .  S
C125        O126   1.275       .  A
C125        C355   1.452       .  S
O126       Cr131   2.017       .  S
O127        C480   1.242       .  A
O127       Cr131   1.973       .  S
C128        O479   1.242       .  A
C128        C700   1.477   1_565  S
Cr129       O463   2.066   1_545  S
Cr129       O484   1.747   1_545  S
Cr130       O475   1.957       .  S
Cr130       O132   1.785       .  S
Cr131       O132   1.747       .  S
O132       Cr481   1.747       .  S
O133        C141   1.300       .  A
O133       Cr855   2.066   1_455  S
O134        C839   1.245       .  A
O134       Cr151   1.940       .  S
C135        O136   1.257   1_655  A
C135        O838   1.245       .  A
C135        C785   1.452       .  S
O136       Cr152   1.997       .  S
O137        C138   1.257       .  A
O137       Cr152   1.997       .  S
C138        O139   1.245       .  A
O139       Cr153   1.940       .  S
O140        C141   1.300       .  A
O140       Cr153   2.066       .  S
C141        C163   1.543       .  S
O142        C150   1.242       .  A
O142       Cr151   1.973       .  S
O143        C144   1.275       .  A
O143       Cr151   2.017       .  S
C144        O145   1.265       .  A
O145       Cr856   1.957       .  S
O146        C147   1.265       .  A
O146       Cr152   1.957       .  S
C147        O148   1.275       .  A
C147        C773   1.452       .  S
O148       Cr153   2.017       .  S
O149        C854   1.242       .  A
O149       Cr153   1.972       .  S
C150        O853   1.242       .  A
C150        C986   1.477   1_554  S
Cr151       O837   2.066       .  S
Cr151       O858   1.747       .  S
Cr152       O849   1.957   1_455  S
Cr152       O154   1.785       .  S
Cr153       O154   1.747       .  S
O154       Cr855   1.747   1_455  S
O155        C163   1.300       .  A
O155       Cr173   2.066       .  S
O156        C157   1.245       .  A
O156       Cr173   1.940       .  S
C157        O158   1.257       .  A
O158       Cr174   1.997       .  S
O159        C160   1.257   1_545  A
O159       Cr174   1.997       .  S
C160        O513   1.245       .  A
C160        C430   1.452       .  S
O161        C512   1.245       .  A
O161       Cr175   1.940       .  S
O162        C163   1.300       .  A
O162       Cr527   2.066   1_545  S
O164        C524   1.242       .  A
O164       Cr173   1.973       .  S
O165        C166   1.275       .  A
O165       Cr173   2.017       .  S
C166        O167   1.265       .  A
C166        C424   1.452       .  S
O167       Cr174   1.957       .  S
O168        C169   1.265       .  A
O168       Cr526   1.957       .  S
C169        O170   1.275       .  A
O170       Cr175   2.017       .  S
O171        C172   1.242       .  A
O171       Cr175   1.973       .  S
C172        O516   1.242       .  A
C172        C656   1.477   1_554  S
Cr173       O176   1.747       .  S
Cr174       O520   1.957   1_545  S
Cr174       O176   1.785       .  S
Cr175       O514   2.066       .  S
Cr175       O528   1.747       .  S
O176       Cr527   1.747   1_545  S
O177        C185   1.300       .  A
O177       Cr547   2.066   1_545  S
O178        C531   1.245       .  A
O178       Cr195   1.940       .  S
C179        O530   1.245       .  A
C179        O180   1.257   1_565  A
C179        C653   1.452       .  S
O180       Cr196   1.997       .  S
O181        C182   1.257   1_455  A
O181       Cr196   1.997       .  S
C182        O887   1.245       .  A
C182        C980   1.452       .  S
O183        C886   1.245       .  A
O183       Cr197   1.940       .  S
O184        C185   1.300       .  A
O184       Cr901   2.066   1_455  S
C185        C207   1.543       .  S
O186        C898   1.242       .  A
O186       Cr195   1.973       .  S
O187        C188   1.275       .  A
O187       Cr195   2.017       .  S
C188        O189   1.265       .  A
C188        C974   1.452       .  S
O189       Cr548   1.957       .  S
O190        C191   1.265       .  A
O190       Cr900   1.957       .  S
C191        O192   1.275       .  A
C191        C641   1.452       .  S
O192       Cr197   2.017       .  S
O193        C546   1.242       .  A
O193       Cr197   1.972       .  S
C194        O890   1.242       .  A
C194        O545   1.242       .  A
C194       C1316   1.477       .  S
Cr195       O529   2.066       .  S
Cr195       O550   1.747       .  S
Cr196       O541   1.957   1_545  S
Cr196       O894   1.957   1_455  S
Cr196       O198   1.785       .  S
Cr197       O888   2.066       .  S
Cr197       O902   1.747       .  S
O198       Cr547   1.747   1_545  S
O198       Cr901   1.747   1_455  S
O199        C207   1.300       .  A
O199       Cr217   2.066       .  S
O200        C201   1.245       .  A
O200       Cr217   1.940       .  S
C201        O202   1.257       .  A
C201        C279   1.452       .  S
O202       Cr218   1.997       .  S
O203        C204   1.257       .  A
O203       Cr218   1.997       .  S
C204        O205   1.245       .  A
C204        C298   1.452       .  S
O205       Cr219   1.940       .  S
O206        C207   1.300       .  A
O206       Cr219   2.066       .  S
O208        C216   1.242       .  A
O208       Cr217   1.972       .  S
O209        C210   1.275       .  A
O209       Cr217   2.017       .  S
C210        O211   1.265       .  A
C210        C292   1.452       .  S
O211       Cr218   1.957       .  S
O212        C213   1.265       .  A
O212       Cr218   1.957       .  S
C213        O214   1.275       .  A
C213        C267   1.452       .  S
O214       Cr219   2.017       .  S
O215        C216   1.242       .  A
O215       Cr219   1.973       .  S
C216        C238   1.477       .  S
Cr217       O220   1.747       .  S
Cr218       O220   1.785       .  S
Cr219       O220   1.747       .  S
O221        C229   1.300       .  A
O221       Cr239   2.066       .  S
O222        C223   1.245       .  A
O222       Cr239   1.940       .  S
C223        O224   1.257       .  A
C223        C345   1.452       .  S
O224       Cr240   1.997       .  S
O225        C226   1.257       .  A
O225       Cr240   1.997       .  S
C226        O227   1.245       .  A
C226        C320   1.452       .  S
O227       Cr241   1.940       .  S
O228        C229   1.300       .  A
O228       Cr241   2.066       .  S
C229        C251   1.543       .  S
O230        C238   1.242       .  A
O230       Cr239   1.973       .  S
O231        C232   1.275       .  A
O231       Cr239   2.017       .  S
C232        O233   1.265       .  A
C232        C314   1.452       .  S
O233       Cr240   1.957       .  S
O234        C235   1.265       .  A
O234       Cr240   1.957       .  S
C235        O236   1.275       .  A
C235        C333   1.452       .  S
O236       Cr241   2.017       .  S
O237        C238   1.242       .  A
O237       Cr241   1.973       .  S
Cr239       O242   1.747       .  S
Cr240       O242   1.785       .  S
Cr241       O242   1.747       .  S
O243        C251   1.300       .  A
O243       Cr965   2.066       .  S
O244        C949   1.245       .  A
O244       Cr261   1.940       .  S
C245        O948   1.245       .  A
C245        O246   1.257       .  A
C245       C1027   1.452       .  S
O246       Cr262   1.997       .  S
O247        C248   1.257       .  A
O247       Cr262   1.997       .  S
C248        O601   1.245       .  A
C248        C694   1.452       .  S
O249        C600   1.245       .  A
O249       Cr263   1.940       .  S
O250        C251   1.300       .  A
O250       Cr615   2.066       .  S
O252        C612   1.242   1_455  A
O252       Cr261   1.973       .  S
O253        C254   1.275       .  A
O253       Cr261   2.017       .  S
C254        O255   1.265       .  A
C254        C688   1.452       .  S
O255       Cr966   1.957   1_455  S
O256        C257   1.265       .  A
O256       Cr614   1.957   1_545  S
C257        O258   1.275       .  A
C257       C1015   1.452       .  S
O258       Cr263   2.017       .  S
O259        C964   1.242   1_545  A
O259       Cr263   1.973       .  S
C260        O604   1.242   1_655  A
C260        O963   1.242   1_565  A
C260       C1250   1.477   1_665  S
Cr261       O947   2.066   1_455  S
Cr261       O968   1.747   1_455  S
Cr262       O959   1.957       .  S
Cr262       O608   1.957       .  S
Cr262       O264   1.785       .  S
Cr263       O602   2.066   1_545  S
Cr263       O616   1.747   1_545  S
O264       Cr965   1.747       .  S
O264       Cr615   1.747       .  S
O265        C273   1.300       .  A
O265       Cr283   2.066       .  S
O266        C267   1.245       .  A
O266       Cr283   1.940       .  S
C267        O268   1.257       .  A
O268       Cr284   1.997       .  S
O269        C270   1.257       .  A
O269       Cr284   1.997       .  S
C270        O975   1.245       .  A
C270        C892   1.452       .  S
O271        C974   1.245       .  A
O271       Cr285   1.940       .  S
O272        C273   1.300       .  A
O272       Cr989   2.066       .  S
C273        C295   1.543       .  S
O274        C986   1.242       .  A
O274       Cr283   1.972       .  S
O275        C276   1.275       .  A
O275       Cr283   2.017       .  S
C276        O277   1.265       .  A
C276        C886   1.452       .  S
O277       Cr284   1.957       .  S
O278        C279   1.265       .  A
O278       Cr988   1.957   1_455  S
C279        O280   1.275       .  A
O280       Cr285   2.017       .  S
O281        C282   1.242   1_455  A
O281       Cr285   1.972       .  S
C282        O978   1.242       .  A
C282        C854   1.477   1_656  S
Cr283       O286   1.747       .  S
Cr284       O982   1.957       .  S
Cr284       O286   1.785       .  S
Cr285       O976   2.066   1_455  S
Cr285       O990   1.747   1_455  S
O286       Cr989   1.747       .  S
O287        C295   1.300       .  A
O287       Cr657   2.066       .  S
O288        C641   1.245       .  A
O288       Cr305   1.940       .  S
C289        O640   1.245       .  A
C289        O290   1.257       .  A
C289        C543   1.452       .  S
O290       Cr306   1.997       .  S
O291        C292   1.257       .  A
O291       Cr306   1.997       .  S
C292        O293   1.245       .  A
O293       Cr307   1.940       .  S
O294        C295   1.300       .  A
O294       Cr307   2.066       .  S
O296        C304   1.242   1_545  A
O296       Cr305   1.973       .  S
O297        C298   1.275       .  A
O297       Cr305   2.017       .  S
C298        O299   1.265       .  A
O299       Cr658   1.957   1_545  S
O300        C301   1.265       .  A
O300       Cr306   1.957       .  S
C301        O302   1.275       .  A
C301        C531   1.452       .  S
O302       Cr307   2.017       .  S
O303        C656   1.242       .  A
O303       Cr307   1.973       .  S
C304        O655   1.242       .  A
C304        C524   1.477   1_566  S
Cr305       O639   2.066   1_545  S
Cr305       O660   1.747   1_545  S
Cr306       O651   1.957       .  S
Cr306       O308   1.785       .  S
Cr307       O308   1.747       .  S
O308       Cr657   1.747       .  S
O309        C317   1.300       .  A
O309      Cr1031   2.066   1_455  S
O310       C1015   1.245       .  A
O310       Cr327   1.940       .  S
C311       O1014   1.245       .  A
C311        O312   1.257   1_655  A
C311        C961   1.452       .  S
O312       Cr328   1.997       .  S
O313        C314   1.257       .  A
O313       Cr328   1.997       .  S
C314        O315   1.245       .  A
O315       Cr329   1.940       .  S
O316        C317   1.300       .  A
O316       Cr329   2.066       .  S
C317        C339   1.543       .  S
O318        C326   1.242       .  A
O318       Cr327   1.973       .  S
O319        C320   1.275       .  A
O319       Cr327   2.017       .  S
C320        O321   1.265       .  A
O321      Cr1032   1.957       .  S
O322        C323   1.265       .  A
O322       Cr328   1.957       .  S
C323        O324   1.275       .  A
C323        C949   1.452       .  S
O324       Cr329   2.017       .  S
O325       C1030   1.242       .  A
O325       Cr329   1.972       .  S
C326       O1029   1.242       .  A
C326        C810   1.477       .  S
Cr327      O1013   2.066       .  S
Cr327      O1034   1.747       .  S
Cr328      O1025   1.957   1_455  S
Cr328       O330   1.785       .  S
Cr329       O330   1.747       .  S
O330      Cr1031   1.747   1_455  S
O331        C339   1.300       .  A
O331       Cr349   2.066       .  S
O332        C333   1.245       .  A
O332       Cr349   1.940       .  S
C333        O334   1.257       .  A
O334       Cr350   1.997       .  S
O335        C336   1.257   1_545  A
O335       Cr350   1.997       .  S
C336        O689   1.245       .  A
C336        C606   1.452       .  S
O337        C688   1.245       .  A
O337       Cr351   1.940       .  S
O338        C339   1.300       .  A
O338       Cr703   2.066   1_545  S
O340        C700   1.242       .  A
O340       Cr349   1.973       .  S
O341        C342   1.275       .  A
O341       Cr349   2.017       .  S
C342        O343   1.265       .  A
C342        C600   1.452       .  S
O343       Cr350   1.957       .  S
O344        C345   1.265       .  A
O344       Cr702   1.957       .  S
C345        O346   1.275       .  A
O346       Cr351   2.017       .  S
O347        C348   1.242       .  A
O347       Cr351   1.973       .  S
C348        O692   1.242       .  A
C348        C480   1.477       .  S
Cr349       O352   1.747       .  S
Cr350       O696   1.957   1_545  S
Cr350       O352   1.785       .  S
Cr351       O690   2.066       .  S
Cr351       O704   1.747       .  S
O352       Cr703   1.747   1_545  S
O353        C361   1.300       .  A
O354       Cr371   1.940       .  S
C355        O356   1.257       .  A
O356       Cr372   1.997       .  S
O357        C358   1.257   1_455  A
O357       Cr372   1.997       .  S
C358       O1063   1.245       .  A
C358       C1156   1.452       .  S
O359       C1062   1.245       .  A
O359       Cr373   1.940       .  S
O360        C361   1.300       .  A
O360      Cr1077   2.066   1_455  S
C361        C383   1.543       .  S
O362       C1074   1.242   1_565  A
O362       Cr371   1.973       .  S
O363        C364   1.275       .  A
O363       Cr371   2.017       .  S
C364        O365   1.265       .  A
C364       C1150   1.452       .  S
O366        C367   1.265       .  A
O366      Cr1076   1.957       .  S
C367        O368   1.275       .  A
O368       Cr373   2.017       .  S
O369       Cr373   1.972       .  S
C370       O1066   1.242   1_545  A
C370        C788   1.477   1_545  S
Cr372      O1070   1.957   1_455  S
Cr372       O374   1.785       .  S
Cr373      O1064   2.066       .  S
Cr373      O1078   1.747       .  S
O374      Cr1077   1.747   1_455  S
O375        C383   1.300       .  A
O375       Cr393   2.066       .  S
O376        C377   1.245       .  A
O376       Cr393   1.940       .  S
C377        O378   1.257       .  A
C377        C455   1.452       .  S
O378       Cr394   1.997       .  S
O379        C380   1.257       .  A
O379       Cr394   1.997       .  S
C380        O381   1.245       .  A
C380        C474   1.452       .  S
O381       Cr395   1.940       .  S
O382        C383   1.300       .  A
O382       Cr395   2.066       .  S
O384        C392   1.242       .  A
O384       Cr393   1.972       .  S
O385        C386   1.275       .  A
O385       Cr393   2.017       .  S
C386        O387   1.265       .  A
C386        C468   1.452       .  S
O387       Cr394   1.957       .  S
O388        C389   1.265       .  A
O388       Cr394   1.957       .  S
C389        O390   1.275       .  A
C389        C443   1.452       .  S
O390       Cr395   2.017       .  S
O391        C392   1.242       .  A
O391       Cr395   1.973       .  S
C392        C414   1.477       .  S
Cr393       O396   1.747       .  S
Cr394       O396   1.785       .  S
Cr395       O396   1.747       .  S
O397        C405   1.300       .  A
O397       Cr415   2.066       .  S
O398        C399   1.245       .  A
O398       Cr415   1.940       .  S
C399        O400   1.257       .  A
C399        C521   1.452       .  S
O400       Cr416   1.997       .  S
O401        C402   1.257       .  A
O401       Cr416   1.997       .  S
C402        O403   1.245       .  A
C402        C496   1.452       .  S
O403       Cr417   1.940       .  S
O404        C405   1.300       .  A
O404       Cr417   2.066       .  S
C405        C427   1.543       .  S
O406        C414   1.242       .  A
O406       Cr415   1.973       .  S
O407        C408   1.275       .  A
O407       Cr415   2.017       .  S
C408        O409   1.265       .  A
C408        C490   1.452       .  S
O409       Cr416   1.957       .  S
O410        C411   1.265       .  A
O410       Cr416   1.957       .  S
C411        O412   1.275       .  A
C411        C509   1.452       .  S
O412       Cr417   2.017       .  S
O413        C414   1.242       .  A
O413       Cr417   1.973       .  S
Cr415       O418   1.747       .  S
Cr416       O418   1.785       .  S
Cr417       O418   1.747       .  S
O419        C427   1.300       .  A
O419      Cr1141   2.066       .  S
O420       C1125   1.245       .  A
O420       Cr437   1.940       .  S
C421       O1124   1.245       .  A
C421        O422   1.257       .  A
C421       C1203   1.452       .  S
O422       Cr438   1.997       .  S
O423        C424   1.257   1_565  A
O423       Cr438   1.997       .  S
O425       Cr439   1.940       .  S
O426        C427   1.300       .  A
O428       Cr437   1.973       .  S
O429        C430   1.275       .  A
O429       Cr437   2.017       .  S
C430        O431   1.265       .  A
O431      Cr1142   1.957   1_455  S
O432        C433   1.265       .  A
C433        O434   1.275       .  A
C433       C1191   1.452       .  S
O434       Cr439   2.017       .  S
O435       C1140   1.242       .  A
O435       Cr439   1.973       .  S
C436       O1139   1.242       .  A
C436        C722   1.477   1_655  S
Cr437      O1123   2.066   1_455  S
Cr437      O1144   1.747   1_455  S
Cr438      O1135   1.957       .  S
Cr438       O440   1.785       .  S
O440      Cr1141   1.747       .  S
O441        C449   1.300       .  A
O441       Cr459   2.066       .  S
O442        C443   1.245       .  A
O442       Cr459   1.940       .  S
C443        O444   1.257       .  A
O444       Cr460   1.997       .  S
O445        C446   1.257       .  A
O445       Cr460   1.997       .  S
C446       O1151   1.245       .  A
C446       C1068   1.452       .  S
O447       C1150   1.245       .  A
O447       Cr461   1.940       .  S
O448        C449   1.300       .  A
O448      Cr1165   2.066       .  S
C449        C471   1.543       .  S
O450       C1162   1.242       .  A
O450       Cr459   1.972       .  S
O451        C452   1.275       .  A
O451       Cr459   2.017       .  S
C452        O453   1.265       .  A
C452       C1062   1.452       .  S
O453       Cr460   1.957       .  S
O454        C455   1.265       .  A
O454      Cr1164   1.957   1_455  S
C455        O456   1.275       .  A
O456       Cr461   2.017       .  S
O457        C458   1.242   1_455  A
O457       Cr461   1.972       .  S
C458       O1154   1.242       .  A
C458       C1382   1.477   1_655  S
Cr459       O462   1.747       .  S
Cr460      O1158   1.957       .  S
Cr460       O462   1.785       .  S
Cr461      O1152   2.066   1_455  S
Cr461      O1166   1.747   1_455  S
O462      Cr1165   1.747       .  S
O463        C471   1.300       .  A
O464       Cr481   1.940       .  S
C465        O466   1.257   1_545  A
O466       Cr482   1.997       .  S
O467        C468   1.257       .  A
O467       Cr482   1.997       .  S
C468        O469   1.245       .  A
O469       Cr483   1.940       .  S
O470        C471   1.300       .  A
O470       Cr483   2.066       .  S
O472        C480   1.242       .  A
O472       Cr481   1.973       .  S
O473        C474   1.275       .  A
O473       Cr481   2.017       .  S
C474        O475   1.265       .  A
O476        C477   1.265       .  A
O476       Cr482   1.957       .  S
C477        O478   1.275       .  A
O478       Cr483   2.017       .  S
O479       Cr483   1.973       .  S
Cr482       O484   1.785       .  S
Cr483       O484   1.747       .  S
O485        C493   1.300       .  A
O485      Cr1207   2.066   1_455  S
O486       C1191   1.245       .  A
O486       Cr503   1.940       .  S
C487       O1190   1.245       .  A
C487        O488   1.257   1_655  A
C487       C1137   1.452       .  S
O488       Cr504   1.997       .  S
O489        C490   1.257       .  A
O489       Cr504   1.997       .  S
C490        O491   1.245       .  A
O491       Cr505   1.940       .  S
O492        C493   1.300       .  A
O492       Cr505   2.066       .  S
C493        C515   1.543       .  S
O494        C502   1.242       .  A
O494       Cr503   1.973       .  S
O495        C496   1.275       .  A
O495       Cr503   2.017       .  S
C496        O497   1.265       .  A
O497      Cr1208   1.957       .  S
O498        C499   1.265       .  A
O498       Cr504   1.957       .  S
C499        O500   1.275       .  A
C499       C1125   1.452       .  S
O500       Cr505   2.017       .  S
O501       C1206   1.242       .  A
O501       Cr505   1.972       .  S
C502       O1205   1.242       .  A
C502       C1338   1.477   1_554  S
Cr503      O1189   2.066       .  S
Cr503      O1210   1.747       .  S
Cr504      O1201   1.957   1_455  S
Cr504       O506   1.785       .  S
Cr505       O506   1.747       .  S
O506      Cr1207   1.747   1_455  S
O507        C515   1.300       .  A
O507       Cr525   2.066       .  S
O508        C509   1.245       .  A
O508       Cr525   1.940       .  S
C509        O510   1.257       .  A
O510       Cr526   1.997       .  S
O511        C512   1.257       .  A
O511       Cr526   1.997       .  S
O513       Cr527   1.940       .  S
O514        C515   1.300       .  A
O516       Cr525   1.973       .  S
O517        C518   1.275       .  A
O517       Cr525   2.017       .  S
C518        O519   1.265       .  A
O519       Cr526   1.957       .  S
O520        C521   1.265       .  A
C521        O522   1.275       .  A
O522       Cr527   2.017       .  S
O523        C524   1.242   1_565  A
O523       Cr527   1.973       .  S
Cr525       O528   1.747       .  S
Cr526       O528   1.785       .  S
O529        C537   1.300       .  A
O530       Cr547   1.940       .  S
C531        O532   1.257       .  A
O532       Cr548   1.997       .  S
O533        C534   1.257   1_455  A
O533       Cr548   1.997       .  S
C534       O1239   1.245       .  A
C534       C1332   1.452       .  S
O535       C1238   1.245       .  A
O535       Cr549   1.940       .  S
O536        C537   1.300       .  A
O536      Cr1253   2.066   1_455  S
C537        C559   1.543       .  S
O538       C1250   1.242   1_565  A
O538       Cr547   1.973       .  S
O539        C540   1.275       .  A
O539       Cr547   2.017       .  S
C540        O541   1.265       .  A
C540       C1326   1.452       .  S
O542        C543   1.265       .  A
O542      Cr1252   1.957       .  S
C543        O544   1.275       .  A
O544       Cr549   2.017       .  S
O545       Cr549   1.972       .  S
C546       O1242   1.242   1_545  A
C546        C964   1.477   1_545  S
Cr548      O1246   1.957   1_455  S
Cr548       O550   1.785       .  S
Cr549      O1240   2.066       .  S
Cr549      O1254   1.747       .  S
O550      Cr1253   1.747   1_455  S
O551        C559   1.300       .  A
O551       Cr569   2.066       .  S
O552        C553   1.245       .  A
O552       Cr569   1.940       .  S
C553        O554   1.257       .  A
C553        C631   1.452       .  S
O554       Cr570   1.997       .  S
O555        C556   1.257       .  A
O555       Cr570   1.997       .  S
C556        O557   1.245       .  A
C556        C650   1.452       .  S
O557       Cr571   1.940       .  S
O558        C559   1.300       .  A
O558       Cr571   2.066       .  S
O560        C568   1.242       .  A
O560       Cr569   1.972       .  S
O561        C562   1.275       .  A
O561       Cr569   2.017       .  S
C562        O563   1.265       .  A
C562        C644   1.452       .  S
O563       Cr570   1.957       .  S
O564        C565   1.265       .  A
O564       Cr570   1.957       .  S
C565        O566   1.275       .  A
C565        C619   1.452       .  S
O566       Cr571   2.017       .  S
O567        C568   1.242       .  A
O567       Cr571   1.973       .  S
C568        C590   1.477       .  S
Cr569       O572   1.747       .  S
Cr570       O572   1.785       .  S
Cr571       O572   1.747       .  S
O573        C581   1.300       .  A
O573       Cr591   2.066       .  S
O574        C575   1.245       .  A
O574       Cr591   1.940       .  S
C575        O576   1.257       .  A
C575        C697   1.452       .  S
O576       Cr592   1.997       .  S
O577        C578   1.257       .  A
O577       Cr592   1.997       .  S
C578        O579   1.245       .  A
C578        C672   1.452       .  S
O579       Cr593   1.940       .  S
O580        C581   1.300       .  A
O580       Cr593   2.066       .  S
C581        C603   1.543       .  S
O582        C590   1.242       .  A
O582       Cr591   1.973       .  S
O583        C584   1.275       .  A
O583       Cr591   2.017       .  S
C584        O585   1.265       .  A
C584        C666   1.452       .  S
O585       Cr592   1.957       .  S
O586        C587   1.265       .  A
O586       Cr592   1.957       .  S
C587        O588   1.275       .  A
C587        C685   1.452       .  S
O588       Cr593   2.017       .  S
O589        C590   1.242       .  A
O589       Cr593   1.973       .  S
Cr591       O594   1.747       .  S
Cr592       O594   1.785       .  S
Cr593       O594   1.747       .  S
O595        C603   1.300       .  A
O595      Cr1317   2.066       .  S
O596       C1301   1.245       .  A
O596       Cr613   1.940       .  S
C597       O1300   1.245       .  A
C597        O598   1.257       .  A
C597       C1379   1.452       .  S
O598       Cr614   1.997       .  S
O599        C600   1.257   1_565  A
O599       Cr614   1.997       .  S
O601       Cr615   1.940       .  S
O602        C603   1.300       .  A
O604       Cr613   1.973       .  S
O605        C606   1.275       .  A
O605       Cr613   2.017       .  S
C606        O607   1.265       .  A
O607      Cr1318   1.957   1_455  S
O608        C609   1.265       .  A
C609        O610   1.275       .  A
C609       C1367   1.452       .  S
O610       Cr615   2.017       .  S
O611       C1316   1.242       .  A
O611       Cr615   1.973       .  S
C612       O1315   1.242       .  A
C612        C898   1.477   1_655  S
Cr613      O1299   2.066   1_455  S
Cr613      O1320   1.747   1_455  S
Cr614      O1311   1.957       .  S
Cr614       O616   1.785       .  S
O616      Cr1317   1.747       .  S
O617        C625   1.300       .  A
O617       Cr635   2.066       .  S
O618        C619   1.245       .  A
O618       Cr635   1.940       .  S
C619        O620   1.257       .  A
O620       Cr636   1.997       .  S
O621        C622   1.257       .  A
O621       Cr636   1.997       .  S
C622       O1327   1.245       .  A
C622       C1244   1.452       .  S
O623       C1326   1.245       .  A
O623       Cr637   1.940       .  S
O624        C625   1.300       .  A
O624      Cr1341   2.066       .  S
C625        C647   1.543       .  S
O626       C1338   1.242       .  A
O626       Cr635   1.972       .  S
O627        C628   1.275       .  A
O627       Cr635   2.017       .  S
C628        O629   1.265       .  A
C628       C1238   1.452       .  S
O629       Cr636   1.957       .  S
O630        C631   1.265       .  A
O630      Cr1340   1.957   1_455  S
C631        O632   1.275       .  A
O632       Cr637   2.017       .  S
O633        C634   1.242   1_455  A
O633       Cr637   1.972       .  S
C634       O1330   1.242       .  A
C634       C1206   1.477   1_656  S
Cr635       O638   1.747       .  S
Cr636      O1334   1.957       .  S
Cr636       O638   1.785       .  S
Cr637      O1328   2.066   1_455  S
Cr637      O1342   1.747   1_455  S
O638      Cr1341   1.747       .  S
O639        C647   1.300       .  A
O640       Cr657   1.940       .  S
C641        O642   1.257   1_545  A
O642       Cr658   1.997       .  S
O643        C644   1.257       .  A
O643       Cr658   1.997       .  S
C644        O645   1.245       .  A
O645       Cr659   1.940       .  S
O646        C647   1.300       .  A
O646       Cr659   2.066       .  S
O648        C656   1.242       .  A
O648       Cr657   1.973       .  S
O649        C650   1.275       .  A
O649       Cr657   2.017       .  S
C650        O651   1.265       .  A
O652        C653   1.265       .  A
O652       Cr658   1.957       .  S
C653        O654   1.275       .  A
O654       Cr659   2.017       .  S
O655       Cr659   1.973       .  S
Cr658       O660   1.785       .  S
Cr659       O660   1.747       .  S
O661        C669   1.300       .  A
O661      Cr1383   2.066   1_455  S
O662       C1367   1.245       .  A
O662       Cr679   1.940       .  S
C663       O1366   1.245       .  A
C663        O664   1.257   1_655  A
C663       C1313   1.452       .  S
O664       Cr680   1.997       .  S
O665        C666   1.257       .  A
O665       Cr680   1.997       .  S
C666        O667   1.245       .  A
O667       Cr681   1.940       .  S
O668        C669   1.300       .  A
O668       Cr681   2.066       .  S
C669        C691   1.543       .  S
O670        C678   1.242       .  A
O670       Cr679   1.973       .  S
O671        C672   1.275       .  A
O671       Cr679   2.017       .  S
C672        O673   1.265       .  A
O673      Cr1384   1.957       .  S
O674        C675   1.265       .  A
O674       Cr680   1.957       .  S
C675        O676   1.275       .  A
C675       C1301   1.452       .  S
O676       Cr681   2.017       .  S
O677       C1382   1.242       .  A
O677       Cr681   1.972       .  S
C678       O1381   1.242       .  A
C678       C1162   1.477       .  S
Cr679      O1365   2.066       .  S
Cr679      O1386   1.747       .  S
Cr680      O1377   1.957   1_455  S
Cr680       O682   1.785       .  S
Cr681       O682   1.747       .  S
O682      Cr1383   1.747   1_455  S
O683        C691   1.300       .  A
O683       Cr701   2.066       .  S
O684        C685   1.245       .  A
O684       Cr701   1.940       .  S
C685        O686   1.257       .  A
O686       Cr702   1.997       .  S
O687        C688   1.257       .  A
O687       Cr702   1.997       .  S
O689       Cr703   1.940       .  S
O690        C691   1.300       .  A
O692       Cr701   1.973       .  S
O693        C694   1.275       .  A
O693       Cr701   2.017       .  S
C694        O695   1.265       .  A
O695       Cr702   1.957       .  S
O696        C697   1.265       .  A
C697        O698   1.275       .  A
O698       Cr703   2.017       .  S
O699        C700   1.242   1_565  A
O699       Cr703   1.973       .  S
Cr701       O704   1.747       .  S
Cr702       O704   1.785       .  S
O705        C713   1.300       .  A
O705      Cr1075   2.066   1_545  S
O706       C1059   1.245       .  A
O706       Cr723   1.940       .  S
C707       O1058   1.245       .  A
C707        O708   1.257   1_565  A
C707       C1181   1.452       .  S
O708       Cr724   1.997       .  S
O709        C710   1.257       .  A
O709       Cr724   1.997       .  S
O711       Cr725   1.940       .  S
O712        C713   1.300       .  A
C713        C735   1.543       .  S
O714       Cr723   1.973       .  S
O715        C716   1.275       .  A
O715       Cr723   2.017       .  S
C716        O717   1.265       .  A
O717      Cr1076   1.957       .  S
O718        C719   1.265       .  A
C719        O720   1.275       .  A
C719       C1169   1.452       .  S
O720       Cr725   2.017       .  S
O721       C1074   1.242   1_655  A
O721       Cr725   1.972       .  S
C722       O1073   1.242   1_455  A
Cr723      O1057   2.066       .  S
Cr723      O1078   1.747       .  S
Cr724      O1069   1.957   1_545  S
Cr724       O726   1.785       .  S
O726      Cr1075   1.747   1_545  S
O727        C735   1.300       .  A
O727       Cr745   2.066       .  S
O728        C729   1.245       .  A
O728       Cr745   1.940       .  S
C729        O730   1.257       .  A
C729        C807   1.452       .  S
O730       Cr746   1.997       .  S
O731        C732   1.257       .  A
O731       Cr746   1.997       .  S
C732        O733   1.245       .  A
C732        C826   1.452       .  S
O733       Cr747   1.940       .  S
O734        C735   1.300       .  A
O734       Cr747   2.066       .  S
O736        C744   1.242       .  A
O736       Cr745   1.972       .  S
O737        C738   1.275       .  A
O737       Cr745   2.017       .  S
C738        O739   1.265       .  A
C738        C820   1.452       .  S
O739       Cr746   1.957       .  S
O740        C741   1.265       .  A
O740       Cr746   1.957       .  S
C741        O742   1.275       .  A
C741        C795   1.452       .  S
O742       Cr747   2.017       .  S
O743        C744   1.242       .  A
O743       Cr747   1.973       .  S
C744        C766   1.477       .  S
Cr745       O748   1.747       .  S
Cr746       O748   1.785       .  S
Cr747       O748   1.747       .  S
O749        C757   1.300       .  A
O749       Cr767   2.066       .  S
O750        C751   1.245       .  A
O750       Cr767   1.940       .  S
C751        O752   1.257       .  A
C751        C873   1.452       .  S
O752       Cr768   1.997       .  S
O753        C754   1.257       .  A
O753       Cr768   1.997       .  S
C754        O755   1.245       .  A
C754        C848   1.452       .  S
O755       Cr769   1.940       .  S
O756        C757   1.300       .  A
O756       Cr769   2.066       .  S
C757        C779   1.543       .  S
O758        C766   1.242       .  A
O758       Cr767   1.973       .  S
O759        C760   1.275       .  A
O759       Cr767   2.017       .  S
C760        O761   1.265       .  A
C760        C842   1.452       .  S
O761       Cr768   1.957       .  S
O762        C763   1.265       .  A
O762       Cr768   1.957       .  S
C763        O764   1.275       .  A
C763        C861   1.452       .  S
O764       Cr769   2.017       .  S
O765        C766   1.242       .  A
O765       Cr769   1.973       .  S
Cr767       O770   1.747       .  S
Cr768       O770   1.785       .  S
Cr769       O770   1.747       .  S
O771        C779   1.300       .  A
O772       Cr789   1.940       .  S
C773        O774   1.257   1_455  A
O774       Cr790   1.997       .  S
O775        C776   1.257       .  A
O775       Cr790   1.997       .  S
C776       O1129   1.245       .  A
C776       C1222   1.452       .  S
O777       C1128   1.245       .  A
O777       Cr791   1.940       .  S
O778        C779   1.300       .  A
O778      Cr1143   2.066       .  S
O780       C1140   1.242       .  A
O780       Cr789   1.973       .  S
O781        C782   1.275       .  A
O781       Cr789   2.017       .  S
C782        O783   1.265       .  A
C782       C1216   1.452       .  S
O784        C785   1.265       .  A
O784      Cr1142   1.957   1_545  S
C785        O786   1.275       .  A
O786       Cr791   2.017       .  S
O787       Cr791   1.973       .  S
C788       O1132   1.242       .  A
Cr790      O1136   1.957       .  S
Cr790       O792   1.785       .  S
Cr791      O1130   2.066   1_545  S
Cr791      O1144   1.747   1_545  S
O792      Cr1143   1.747       .  S
O793        C801   1.300       .  A
O793       Cr811   2.066       .  S
O794        C795   1.245       .  A
O794       Cr811   1.940       .  S
C795        O796   1.257       .  A
O796       Cr812   1.997       .  S
O797        C798   1.257   1_655  A
O797       Cr812   1.997       .  S
O799       Cr813   1.940       .  S
O800        C801   1.300       .  A
C801        C823   1.543       .  S
O802       Cr811   1.972       .  S
O803        C804   1.275       .  A
O803       Cr811   2.017       .  S
C804        O805   1.265       .  A
O805       Cr812   1.957       .  S
O806        C807   1.265       .  A
C807        O808   1.275       .  A
O808       Cr813   2.017       .  S
O809        C810   1.242       .  A
O809       Cr813   1.972       .  S
Cr811       O814   1.747       .  S
Cr812       O814   1.785       .  S
O815        C823   1.300       .  A
O815      Cr1185   2.066       .  S
O816       C1169   1.245       .  A
O816       Cr833   1.940       .  S
C817       O1168   1.245       .  A
C817        O818   1.257       .  A
C817       C1071   1.452       .  S
O818       Cr834   1.997       .  S
O819        C820   1.257       .  A
O819       Cr834   1.997       .  S
C820        O821   1.245       .  A
O821       Cr835   1.940       .  S
O822        C823   1.300       .  A
O822       Cr835   2.066       .  S
O824        C832   1.242   1_545  A
O824       Cr833   1.973       .  S
O825        C826   1.275       .  A
O825       Cr833   2.017       .  S
C826        O827   1.265       .  A
O827      Cr1186   1.957   1_545  S
O828        C829   1.265       .  A
O828       Cr834   1.957       .  S
C829        O830   1.275       .  A
C829       C1059   1.452       .  S
O830       Cr835   2.017       .  S
O831       C1184   1.242       .  A
O831       Cr835   1.973       .  S
C832       O1183   1.242       .  A
C832       C1404   1.477   1_565  S
Cr833      O1167   2.066   1_545  S
Cr833      O1188   1.747   1_545  S
Cr834      O1179   1.957       .  S
Cr834       O836   1.785       .  S
Cr835       O836   1.747       .  S
O836      Cr1185   1.747       .  S
O837        C845   1.300       .  A
O838       Cr855   1.940       .  S
C839        O840   1.257       .  A
O840       Cr856   1.997       .  S
O841        C842   1.257       .  A
O841       Cr856   1.997       .  S
C842        O843   1.245       .  A
O843       Cr857   1.940       .  S
O844        C845   1.300       .  A
O844       Cr857   2.066       .  S
C845        C867   1.543       .  S
O846        C854   1.242   1_655  A
O846       Cr855   1.973       .  S
O847        C848   1.275       .  A
O847       Cr855   2.017       .  S
C848        O849   1.265       .  A
O850        C851   1.265       .  A
O850       Cr856   1.957       .  S
C851        O852   1.275       .  A
O852       Cr857   2.017       .  S
O853       Cr857   1.972       .  S
Cr856       O858   1.785       .  S
Cr857       O858   1.747       .  S
O859        C867   1.300       .  A
O859       Cr877   2.066       .  S
O860        C861   1.245       .  A
O860       Cr877   1.940       .  S
C861        O862   1.257       .  A
O862       Cr878   1.997       .  S
O863        C864   1.257   1_545  A
O863       Cr878   1.997       .  S
C864       O1217   1.245       .  A
C864       C1134   1.452       .  S
O865       C1216   1.245       .  A
O865       Cr879   1.940       .  S
O866        C867   1.300       .  A
O866      Cr1231   2.066   1_545  S
O868       C1228   1.242       .  A
O868       Cr877   1.973       .  S
O869        C870   1.275       .  A
O869       Cr877   2.017       .  S
C870        O871   1.265       .  A
C870       C1128   1.452       .  S
O871       Cr878   1.957       .  S
O872        C873   1.265       .  A
O872      Cr1230   1.957       .  S
C873        O874   1.275       .  A
O874       Cr879   2.017       .  S
O875        C876   1.242       .  A
O875       Cr879   1.973       .  S
C876       O1220   1.242       .  A
C876       C1360   1.477   1_554  S
Cr877       O880   1.747       .  S
Cr878      O1224   1.957   1_545  S
Cr878       O880   1.785       .  S
Cr879      O1218   2.066       .  S
Cr879      O1232   1.747       .  S
O880      Cr1231   1.747   1_545  S
O881        C889   1.300       .  A
O881      Cr1251   2.066   1_545  S
O882       C1235   1.245       .  A
O882       Cr899   1.940       .  S
C883       O1234   1.245       .  A
C883        O884   1.257   1_565  A
C883       C1357   1.452       .  S
O884       Cr900   1.997       .  S
O885        C886   1.257       .  A
O885       Cr900   1.997       .  S
O887       Cr901   1.940       .  S
O888        C889   1.300       .  A
C889        C911   1.543       .  S
O890       Cr899   1.973       .  S
O891        C892   1.275       .  A
O891       Cr899   2.017       .  S
C892        O893   1.265       .  A
O893      Cr1252   1.957       .  S
O894        C895   1.265       .  A
C895        O896   1.275       .  A
C895       C1345   1.452       .  S
O896       Cr901   2.017       .  S
O897       C1250   1.242   1_655  A
O897       Cr901   1.972       .  S
C898       O1249   1.242   1_455  A
Cr899      O1233   2.066       .  S
Cr899      O1254   1.747       .  S
Cr900      O1245   1.957   1_545  S
Cr900       O902   1.785       .  S
O902      Cr1251   1.747   1_545  S
O903        C911   1.300       .  A
O903       Cr921   2.066       .  S
O904        C905   1.245       .  A
O904       Cr921   1.940       .  S
C905        O906   1.257       .  A
C905        C983   1.452       .  S
O906       Cr922   1.997       .  S
O907        C908   1.257       .  A
O907       Cr922   1.997       .  S
C908        O909   1.245       .  A
C908       C1002   1.452       .  S
O909       Cr923   1.940       .  S
O910        C911   1.300       .  A
O910       Cr923   2.066       .  S
O912        C920   1.242       .  A
O912       Cr921   1.972       .  S
O913        C914   1.275       .  A
O913       Cr921   2.017       .  S
C914        O915   1.265       .  A
C914        C996   1.452       .  S
O915       Cr922   1.957       .  S
O916        C917   1.265       .  A
O916       Cr922   1.957       .  S
C917        O918   1.275       .  A
C917        C971   1.452       .  S
O918       Cr923   2.017       .  S
O919        C920   1.242       .  A
O919       Cr923   1.973       .  S
C920        C942   1.477       .  S
Cr921       O924   1.747       .  S
Cr922       O924   1.785       .  S
Cr923       O924   1.747       .  S
O925        C933   1.300       .  A
O925       Cr943   2.066       .  S
O926        C927   1.245       .  A
O926       Cr943   1.940       .  S
C927        O928   1.257       .  A
C927       C1049   1.452       .  S
O928       Cr944   1.997       .  S
O929        C930   1.257       .  A
O929       Cr944   1.997       .  S
C930        O931   1.245       .  A
C930       C1024   1.452       .  S
O931       Cr945   1.940       .  S
O932        C933   1.300       .  A
O932       Cr945   2.066       .  S
C933        C955   1.543       .  S
O934        C942   1.242       .  A
O934       Cr943   1.973       .  S
O935        C936   1.275       .  A
O935       Cr943   2.017       .  S
C936        O937   1.265       .  A
C936       C1018   1.452       .  S
O937       Cr944   1.957       .  S
O938        C939   1.265       .  A
O938       Cr944   1.957       .  S
C939        O940   1.275       .  A
C939       C1037   1.452       .  S
O940       Cr945   2.017       .  S
O941        C942   1.242       .  A
O941       Cr945   1.973       .  S
Cr943       O946   1.747       .  S
Cr944       O946   1.785       .  S
Cr945       O946   1.747       .  S
O947        C955   1.300       .  A
O948       Cr965   1.940       .  S
C949        O950   1.257   1_455  A
O950       Cr966   1.997       .  S
O951        C952   1.257       .  A
O951       Cr966   1.997       .  S
C952       O1305   1.245       .  A
C952       C1398   1.452       .  S
O953       C1304   1.245       .  A
O953       Cr967   1.940       .  S
O954        C955   1.300       .  A
O954      Cr1319   2.066       .  S
O956       C1316   1.242       .  A
O956       Cr965   1.973       .  S
O957        C958   1.275       .  A
O957       Cr965   2.017       .  S
C958        O959   1.265       .  A
C958       C1392   1.452       .  S
O960        C961   1.265       .  A
O960      Cr1318   1.957   1_545  S
C961        O962   1.275       .  A
O962       Cr967   2.017       .  S
O963       Cr967   1.973       .  S
C964       O1308   1.242       .  A
Cr966      O1312   1.957       .  S
Cr966       O968   1.785       .  S
Cr967      O1306   2.066   1_545  S
Cr967      O1320   1.747   1_545  S
O968      Cr1319   1.747       .  S
O969        C977   1.300       .  A
O969       Cr987   2.066       .  S
O970        C971   1.245       .  A
O970       Cr987   1.940       .  S
C971        O972   1.257       .  A
O972       Cr988   1.997       .  S
O973        C974   1.257   1_655  A
O973       Cr988   1.997       .  S
O975       Cr989   1.940       .  S
O976        C977   1.300       .  A
C977        C999   1.543       .  S
O978       Cr987   1.972       .  S
O979        C980   1.275       .  A
O979       Cr987   2.017       .  S
C980        O981   1.265       .  A
O981       Cr988   1.957       .  S
O982        C983   1.265       .  A
C983        O984   1.275       .  A
O984       Cr989   2.017       .  S
O985        C986   1.242       .  A
O985       Cr989   1.972       .  S
Cr987       O990   1.747       .  S
Cr988       O990   1.785       .  S
O991        C999   1.300       .  A
O991      Cr1361   2.066       .  S
O992       C1345   1.245       .  A
O992      Cr1009   1.940       .  S
C993       O1344   1.245       .  A
C993        O994   1.257       .  A
C993       C1247   1.452       .  S
O994      Cr1010   1.997       .  S
O995        C996   1.257       .  A
O995      Cr1010   1.997       .  S
C996        O997   1.245       .  A
O997      Cr1011   1.940       .  S
O998        C999   1.300       .  A
O998      Cr1011   2.066       .  S
O1000      C1008   1.242   1_545  A
O1000     Cr1009   1.973       .  S
O1001      C1002   1.275       .  A
O1001     Cr1009   2.017       .  S
C1002      O1003   1.265       .  A
O1003     Cr1362   1.957   1_545  S
O1004      C1005   1.265       .  A
O1004     Cr1010   1.957       .  S
C1005      O1006   1.275       .  A
C1005      C1235   1.452       .  S
O1006     Cr1011   2.017       .  S
O1007      C1360   1.242       .  A
O1007     Cr1011   1.973       .  S
C1008      O1359   1.242       .  A
C1008      C1228   1.477   1_566  S
Cr1009     O1343   2.066   1_545  S
Cr1009     O1364   1.747   1_545  S
Cr1010     O1355   1.957       .  S
Cr1010     O1012   1.785       .  S
Cr1011     O1012   1.747       .  S
O1012     Cr1361   1.747       .  S
O1013      C1021   1.300       .  A
O1014     Cr1031   1.940       .  S
C1015      O1016   1.257       .  A
O1016     Cr1032   1.997       .  S
O1017      C1018   1.257       .  A
O1017     Cr1032   1.997       .  S
C1018      O1019   1.245       .  A
O1019     Cr1033   1.940       .  S
O1020      C1021   1.300       .  A
O1020     Cr1033   2.066       .  S
C1021      C1043   1.543       .  S
O1022      C1030   1.242   1_655  A
O1022     Cr1031   1.973       .  S
O1023      C1024   1.275       .  A
O1023     Cr1031   2.017       .  S
C1024      O1025   1.265       .  A
O1026      C1027   1.265       .  A
O1026     Cr1032   1.957       .  S
C1027      O1028   1.275       .  A
O1028     Cr1033   2.017       .  S
O1029     Cr1033   1.972       .  S
Cr1032     O1034   1.785       .  S
Cr1033     O1034   1.747       .  S
O1035      C1043   1.300       .  A
O1035     Cr1053   2.066       .  S
O1036      C1037   1.245       .  A
O1036     Cr1053   1.940       .  S
C1037      O1038   1.257       .  A
O1038     Cr1054   1.997       .  S
O1039      C1040   1.257   1_545  A
O1039     Cr1054   1.997       .  S
C1040      O1393   1.245       .  A
C1040      C1310   1.452       .  S
O1041      C1392   1.245       .  A
O1041     Cr1055   1.940       .  S
O1042      C1043   1.300       .  A
O1042     Cr1407   2.066   1_545  S
O1044      C1404   1.242       .  A
O1044     Cr1053   1.973       .  S
O1045      C1046   1.275       .  A
O1045     Cr1053   2.017       .  S
C1046      O1047   1.265       .  A
C1046      C1304   1.452       .  S
O1047     Cr1054   1.957       .  S
O1048      C1049   1.265       .  A
O1048     Cr1406   1.957       .  S
C1049      O1050   1.275       .  A
O1050     Cr1055   2.017       .  S
O1051      C1052   1.242       .  A
O1051     Cr1055   1.973       .  S
C1052      O1396   1.242       .  A
C1052      C1184   1.477       .  S
Cr1053     O1056   1.747       .  S
Cr1054     O1400   1.957   1_545  S
Cr1054     O1056   1.785       .  S
Cr1055     O1394   2.066       .  S
Cr1055     O1408   1.747       .  S
O1056     Cr1407   1.747   1_545  S
O1057      C1065   1.300       .  A
O1058     Cr1075   1.940       .  S
C1059      O1060   1.257       .  A
O1060     Cr1076   1.997       .  S
O1061      C1062   1.257       .  A
O1061     Cr1076   1.997       .  S
O1063     Cr1077   1.940       .  S
O1064      C1065   1.300       .  A
C1065      C1087   1.543       .  S
O1066     Cr1075   1.973       .  S
O1067      C1068   1.275       .  A
O1067     Cr1075   2.017       .  S
C1068      O1069   1.265       .  A
O1070      C1071   1.265       .  A
C1071      O1072   1.275       .  A
O1072     Cr1077   2.017       .  S
O1073     Cr1077   1.972       .  S
Cr1076     O1078   1.785       .  S
O1079      C1087   1.300       .  A
O1079     Cr1097   2.066       .  S
O1080      C1081   1.245       .  A
O1080     Cr1097   1.940       .  S
C1081      O1082   1.257       .  A
C1081      C1159   1.452       .  S
O1082     Cr1098   1.997       .  S
O1083      C1084   1.257       .  A
O1083     Cr1098   1.997       .  S
C1084      O1085   1.245       .  A
C1084      C1178   1.452       .  S
O1085     Cr1099   1.940       .  S
O1086      C1087   1.300       .  A
O1086     Cr1099   2.066       .  S
O1088      C1096   1.242       .  A
O1088     Cr1097   1.972       .  S
O1089      C1090   1.275       .  A
O1089     Cr1097   2.017       .  S
C1090      O1091   1.265       .  A
C1090      C1172   1.452       .  S
O1091     Cr1098   1.957       .  S
O1092      C1093   1.265       .  A
O1092     Cr1098   1.957       .  S
C1093      O1094   1.275       .  A
C1093      C1147   1.452       .  S
O1094     Cr1099   2.017       .  S
O1095      C1096   1.242       .  A
O1095     Cr1099   1.973       .  S
C1096      C1118   1.477       .  S
Cr1097     O1100   1.747       .  S
Cr1098     O1100   1.785       .  S
Cr1099     O1100   1.747       .  S
O1101      C1109   1.300       .  A
O1101     Cr1119   2.066       .  S
O1102      C1103   1.245       .  A
O1102     Cr1119   1.940       .  S
C1103      O1104   1.257       .  A
C1103      C1225   1.452       .  S
O1104     Cr1120   1.997       .  S
O1105      C1106   1.257       .  A
O1105     Cr1120   1.997       .  S
C1106      O1107   1.245       .  A
C1106      C1200   1.452       .  S
O1107     Cr1121   1.940       .  S
O1108      C1109   1.300       .  A
O1108     Cr1121   2.066       .  S
C1109      C1131   1.543       .  S
O1110      C1118   1.242       .  A
O1110     Cr1119   1.973       .  S
O1111      C1112   1.275       .  A
O1111     Cr1119   2.017       .  S
C1112      O1113   1.265       .  A
C1112      C1194   1.452       .  S
O1113     Cr1120   1.957       .  S
O1114      C1115   1.265       .  A
O1114     Cr1120   1.957       .  S
C1115      O1116   1.275       .  A
C1115      C1213   1.452       .  S
O1116     Cr1121   2.017       .  S
O1117      C1118   1.242       .  A
O1117     Cr1121   1.973       .  S
Cr1119     O1122   1.747       .  S
Cr1120     O1122   1.785       .  S
Cr1121     O1122   1.747       .  S
O1123      C1131   1.300       .  A
O1124     Cr1141   1.940       .  S
C1125      O1126   1.257   1_455  A
O1126     Cr1142   1.997       .  S
O1127      C1128   1.257   1_565  A
O1127     Cr1142   1.997       .  S
O1129     Cr1143   1.940       .  S
O1130      C1131   1.300       .  A
O1132     Cr1141   1.973       .  S
O1133      C1134   1.275       .  A
O1133     Cr1141   2.017       .  S
C1134      O1135   1.265       .  A
O1136      C1137   1.265       .  A
C1137      O1138   1.275       .  A
O1138     Cr1143   2.017       .  S
O1139     Cr1143   1.973       .  S
Cr1142     O1144   1.785       .  S
O1145      C1153   1.300       .  A
O1145     Cr1163   2.066       .  S
O1146      C1147   1.245       .  A
O1146     Cr1163   1.940       .  S
C1147      O1148   1.257       .  A
O1148     Cr1164   1.997       .  S
O1149      C1150   1.257   1_655  A
O1149     Cr1164   1.997       .  S
O1151     Cr1165   1.940       .  S
O1152      C1153   1.300       .  A
C1153      C1175   1.543       .  S
O1154     Cr1163   1.972       .  S
O1155      C1156   1.275       .  A
O1155     Cr1163   2.017       .  S
C1156      O1157   1.265       .  A
O1157     Cr1164   1.957       .  S
O1158      C1159   1.265       .  A
C1159      O1160   1.275       .  A
O1160     Cr1165   2.017       .  S
O1161      C1162   1.242       .  A
O1161     Cr1165   1.972       .  S
Cr1163     O1166   1.747       .  S
Cr1164     O1166   1.785       .  S
O1167      C1175   1.300       .  A
O1168     Cr1185   1.940       .  S
C1169      O1170   1.257   1_545  A
O1170     Cr1186   1.997       .  S
O1171      C1172   1.257       .  A
O1171     Cr1186   1.997       .  S
C1172      O1173   1.245       .  A
O1173     Cr1187   1.940       .  S
O1174      C1175   1.300       .  A
O1174     Cr1187   2.066       .  S
O1176      C1184   1.242       .  A
O1176     Cr1185   1.973       .  S
O1177      C1178   1.275       .  A
O1177     Cr1185   2.017       .  S
C1178      O1179   1.265       .  A
O1180      C1181   1.265       .  A
O1180     Cr1186   1.957       .  S
C1181      O1182   1.275       .  A
O1182     Cr1187   2.017       .  S
O1183     Cr1187   1.973       .  S
Cr1186     O1188   1.785       .  S
Cr1187     O1188   1.747       .  S
O1189      C1197   1.300       .  A
O1190     Cr1207   1.940       .  S
C1191      O1192   1.257       .  A
O1192     Cr1208   1.997       .  S
O1193      C1194   1.257       .  A
O1193     Cr1208   1.997       .  S
C1194      O1195   1.245       .  A
O1195     Cr1209   1.940       .  S
O1196      C1197   1.300       .  A
O1196     Cr1209   2.066       .  S
C1197      C1219   1.543       .  S
O1198      C1206   1.242   1_655  A
O1198     Cr1207   1.973       .  S
O1199      C1200   1.275       .  A
O1199     Cr1207   2.017       .  S
C1200      O1201   1.265       .  A
O1202      C1203   1.265       .  A
O1202     Cr1208   1.957       .  S
C1203      O1204   1.275       .  A
O1204     Cr1209   2.017       .  S
O1205     Cr1209   1.972       .  S
Cr1208     O1210   1.785       .  S
Cr1209     O1210   1.747       .  S
O1211      C1219   1.300       .  A
O1211     Cr1229   2.066       .  S
O1212      C1213   1.245       .  A
O1212     Cr1229   1.940       .  S
C1213      O1214   1.257       .  A
O1214     Cr1230   1.997       .  S
O1215      C1216   1.257       .  A
O1215     Cr1230   1.997       .  S
O1217     Cr1231   1.940       .  S
O1218      C1219   1.300       .  A
O1220     Cr1229   1.973       .  S
O1221      C1222   1.275       .  A
O1221     Cr1229   2.017       .  S
C1222      O1223   1.265       .  A
O1223     Cr1230   1.957       .  S
O1224      C1225   1.265       .  A
C1225      O1226   1.275       .  A
O1226     Cr1231   2.017       .  S
O1227      C1228   1.242   1_565  A
O1227     Cr1231   1.973       .  S
Cr1229     O1232   1.747       .  S
Cr1230     O1232   1.785       .  S
O1233      C1241   1.300       .  A
O1234     Cr1251   1.940       .  S
C1235      O1236   1.257       .  A
O1236     Cr1252   1.997       .  S
O1237      C1238   1.257       .  A
O1237     Cr1252   1.997       .  S
O1239     Cr1253   1.940       .  S
O1240      C1241   1.300       .  A
C1241      C1263   1.543       .  S
O1242     Cr1251   1.973       .  S
O1243      C1244   1.275       .  A
O1243     Cr1251   2.017       .  S
C1244      O1245   1.265       .  A
O1246      C1247   1.265       .  A
C1247      O1248   1.275       .  A
O1248     Cr1253   2.017       .  S
O1249     Cr1253   1.972       .  S
Cr1252     O1254   1.785       .  S
O1255      C1263   1.300       .  A
O1255     Cr1273   2.066       .  S
O1256      C1257   1.245       .  A
O1256     Cr1273   1.940       .  S
C1257      O1258   1.257       .  A
C1257      C1335   1.452       .  S
O1258     Cr1274   1.997       .  S
O1259      C1260   1.257       .  A
O1259     Cr1274   1.997       .  S
C1260      O1261   1.245       .  A
C1260      C1354   1.452       .  S
O1261     Cr1275   1.940       .  S
O1262      C1263   1.300       .  A
O1262     Cr1275   2.066       .  S
O1264      C1272   1.242       .  A
O1264     Cr1273   1.972       .  S
O1265      C1266   1.275       .  A
O1265     Cr1273   2.017       .  S
C1266      O1267   1.265       .  A
C1266      C1348   1.452       .  S
O1267     Cr1274   1.957       .  S
O1268      C1269   1.265       .  A
O1268     Cr1274   1.957       .  S
C1269      O1270   1.275       .  A
C1269      C1323   1.452       .  S
O1270     Cr1275   2.017       .  S
O1271      C1272   1.242       .  A
O1271     Cr1275   1.973       .  S
C1272      C1294   1.477       .  S
Cr1273     O1276   1.747       .  S
Cr1274     O1276   1.785       .  S
Cr1275     O1276   1.747       .  S
O1277      C1285   1.300       .  A
O1277     Cr1295   2.066       .  S
O1278      C1279   1.245       .  A
O1278     Cr1295   1.940       .  S
C1279      O1280   1.257       .  A
C1279      C1401   1.452       .  S
O1280     Cr1296   1.997       .  S
O1281      C1282   1.257       .  A
O1281     Cr1296   1.997       .  S
C1282      O1283   1.245       .  A
C1282      C1376   1.452       .  S
O1283     Cr1297   1.940       .  S
O1284      C1285   1.300       .  A
O1284     Cr1297   2.066       .  S
C1285      C1307   1.543       .  S
O1286      C1294   1.242       .  A
O1286     Cr1295   1.973       .  S
O1287      C1288   1.275       .  A
O1287     Cr1295   2.017       .  S
C1288      O1289   1.265       .  A
C1288      C1370   1.452       .  S
O1289     Cr1296   1.957       .  S
O1290      C1291   1.265       .  A
O1290     Cr1296   1.957       .  S
C1291      O1292   1.275       .  A
C1291      C1389   1.452       .  S
O1292     Cr1297   2.017       .  S
O1293      C1294   1.242       .  A
O1293     Cr1297   1.973       .  S
Cr1295     O1298   1.747       .  S
Cr1296     O1298   1.785       .  S
Cr1297     O1298   1.747       .  S
O1299      C1307   1.300       .  A
O1300     Cr1317   1.940       .  S
C1301      O1302   1.257   1_455  A
O1302     Cr1318   1.997       .  S
O1303      C1304   1.257   1_565  A
O1303     Cr1318   1.997       .  S
O1305     Cr1319   1.940       .  S
O1306      C1307   1.300       .  A
O1308     Cr1317   1.973       .  S
O1309      C1310   1.275       .  A
O1309     Cr1317   2.017       .  S
C1310      O1311   1.265       .  A
O1312      C1313   1.265       .  A
C1313      O1314   1.275       .  A
O1314     Cr1319   2.017       .  S
O1315     Cr1319   1.973       .  S
Cr1318     O1320   1.785       .  S
O1321      C1329   1.300       .  A
O1321     Cr1339   2.066       .  S
O1322      C1323   1.245       .  A
O1322     Cr1339   1.940       .  S
C1323      O1324   1.257       .  A
O1324     Cr1340   1.997       .  S
O1325      C1326   1.257   1_655  A
O1325     Cr1340   1.997       .  S
O1327     Cr1341   1.940       .  S
O1328      C1329   1.300       .  A
C1329      C1351   1.543       .  S
O1330     Cr1339   1.972       .  S
O1331      C1332   1.275       .  A
O1331     Cr1339   2.017       .  S
C1332      O1333   1.265       .  A
O1333     Cr1340   1.957       .  S
O1334      C1335   1.265       .  A
C1335      O1336   1.275       .  A
O1336     Cr1341   2.017       .  S
O1337      C1338   1.242       .  A
O1337     Cr1341   1.972       .  S
Cr1339     O1342   1.747       .  S
Cr1340     O1342   1.785       .  S
O1343      C1351   1.300       .  A
O1344     Cr1361   1.940       .  S
C1345      O1346   1.257   1_545  A
O1346     Cr1362   1.997       .  S
O1347      C1348   1.257       .  A
O1347     Cr1362   1.997       .  S
C1348      O1349   1.245       .  A
O1349     Cr1363   1.940       .  S
O1350      C1351   1.300       .  A
O1350     Cr1363   2.066       .  S
O1352      C1360   1.242       .  A
O1352     Cr1361   1.973       .  S
O1353      C1354   1.275       .  A
O1353     Cr1361   2.017       .  S
C1354      O1355   1.265       .  A
O1356      C1357   1.265       .  A
O1356     Cr1362   1.957       .  S
C1357      O1358   1.275       .  A
O1358     Cr1363   2.017       .  S
O1359     Cr1363   1.973       .  S
Cr1362     O1364   1.785       .  S
Cr1363     O1364   1.747       .  S
O1365      C1373   1.300       .  A
O1366     Cr1383   1.940       .  S
C1367      O1368   1.257       .  A
O1368     Cr1384   1.997       .  S
O1369      C1370   1.257       .  A
O1369     Cr1384   1.997       .  S
C1370      O1371   1.245       .  A
O1371     Cr1385   1.940       .  S
O1372      C1373   1.300       .  A
O1372     Cr1385   2.066       .  S
C1373      C1395   1.543       .  S
O1374      C1382   1.242   1_655  A
O1374     Cr1383   1.973       .  S
O1375      C1376   1.275       .  A
O1375     Cr1383   2.017       .  S
C1376      O1377   1.265       .  A
O1378      C1379   1.265       .  A
O1378     Cr1384   1.957       .  S
C1379      O1380   1.275       .  A
O1380     Cr1385   2.017       .  S
O1381     Cr1385   1.972       .  S
Cr1384     O1386   1.785       .  S
Cr1385     O1386   1.747       .  S
O1387      C1395   1.300       .  A
O1387     Cr1405   2.066       .  S
O1388      C1389   1.245       .  A
O1388     Cr1405   1.940       .  S
C1389      O1390   1.257       .  A
O1390     Cr1406   1.997       .  S
O1391      C1392   1.257       .  A
O1391     Cr1406   1.997       .  S
O1393     Cr1407   1.940       .  S
O1394      C1395   1.300       .  A
O1396     Cr1405   1.973       .  S
O1397      C1398   1.275       .  A
O1397     Cr1405   2.017       .  S
C1398      O1399   1.265       .  A
O1399     Cr1406   1.957       .  S
O1400      C1401   1.265       .  A
C1401      O1402   1.275       .  A
O1402     Cr1407   2.017       .  S
O1403      C1404   1.242   1_565  A
O1403     Cr1407   1.973       .  S
Cr1405     O1408   1.747       .  S
Cr1406     O1408   1.785       .  S
