geometry optimzed in LAMMPS
_audit_creation_date              2020-12-01 
_audit_creation_method            'lammps2cif' 
_symmetry_space_group_name_H-M    'P1' 
_symmetry_Int_Tables_number       1 
_symmetry_cell_setting            triclinic 
loop_ 
_symmetry_equiv_pos_as_xyz 
  x,y,z 
_cell_length_a                    47.79869929 
_cell_length_b                    47.742637477167385 
_cell_length_c                    31.720654148982277 
_cell_angle_alpha                 89.86143424754373 
_cell_angle_beta                  90.85674206404923 
_cell_angle_gamma                 120.26363939654111 
loop_ 
_atom_site_label 
_atom_site_type_symbol 
_atom_site_fract_x 
_atom_site_fract_y 
_atom_site_fract_z 
_atom_site_charge 
Fe1        Fe  0.60969208  0.13192021  0.01825493     1.65800
Fe2        Fe  0.53737278  0.06926465  0.99132494     1.73200
Fe3        Fe  0.60595284  0.07085187  0.96286644     1.54400
O4          O  0.64717982  0.11617671  0.94797569    -0.81900
O5          O  0.53463618  0.02809336  0.01432298    -0.80200
O6          O  0.63136998  0.15142544  0.96249371    -0.84400
O7          O  0.64645868  0.12204988  0.03559665    -0.79300
O8          O  0.58466861  0.07306767  0.90730344    -0.81000
O9          O  0.53664213  0.08313472  0.05460139    -0.83800
C10         C  0.65012104  0.09735000  0.03813426     0.97000
C11         C  0.65123002  0.14474161  0.94607148     1.04400
O12         O  0.58414008  0.09041247  0.99135944    -1.12800
O13         O  0.53667863  0.10898062  0.96784227    -0.75200
O14         O  0.57705381  0.14811530  0.00494693    -0.78700
O15         O  0.63043601  0.07083073  0.01875504    -0.79400
C16         C  0.55191682  0.13785005  0.98140692     0.95900
O17         O  0.58846659  0.11333885  0.07449648    -0.77300
O18         O  0.53394624  0.05360629  0.92795962    -0.82500
C19         C  0.53919779  0.01008740  0.98981181     0.98500
C20         C  0.55467135  0.06058685  0.89876155     1.04400
O21         O  0.56581403  0.02201168  0.96955088    -0.78200
C22         C  0.55863554  0.09745051  0.08317439     1.02700
Fe23       Fe  0.51730179  0.12413710  0.53597093     1.65800
Fe24       Fe  0.52571769  0.06626515  0.49125071     1.73200
Fe25       Fe  0.47167829  0.08537118  0.45289697     1.54400
O26         O  0.43613155  0.07638529  0.49784115    -0.81900
O27         O  0.52428397  0.06541875  0.42362558    -0.80200
O28         O  0.47021671  0.11836509  0.53841163    -0.84400
O29         O  0.53136776  0.15660243  0.48885399    -0.79300
O30         O  0.45775099  0.03481729  0.44203347    -0.81000
O31         O  0.56960502  0.10722797  0.48599623    -0.83800
C32         C  0.51025058  0.15946164  0.46874318     0.97000
C33         C  0.44148718  0.09881806  0.52460873     1.04400
O34         O  0.50361357  0.09056008  0.49488451    -1.12800
O35         O  0.53004611  0.06579637  0.55823733    -0.75200
O36         O  0.50499977  0.09119932  0.58268492    -0.78700
O37         O  0.48429307  0.13461898  0.45536679    -0.79400
C38         C  0.51850937  0.07449138  0.58862709     0.95900
O39         O  0.56594767  0.13590608  0.53806155    -0.77300
O40         O  0.48211701  0.02476077  0.49462903    -0.82500
C41         C  0.51941717  0.08318161  0.39751410     0.98500
C42         C  0.46540929  0.01556628  0.46101229     1.04400
O43         O  0.50674051  0.09929231  0.40939727    -0.78200
C44         C  0.58196357  0.13225450  0.50904234     1.02700
Fe45       Fe  0.52921816  0.36193537  0.04048737     1.65800
Fe46       Fe  0.54087218  0.43316327  0.00649461     1.73200
Fe47       Fe  0.47698091  0.36415839  0.97041093     1.54400
O48         O  0.48053897  0.32149869  0.96416134    -0.81900
O49         O  0.50008060  0.43365536  0.02153441    -0.80200
O50         O  0.52985507  0.33775315  0.98852286    -0.84400
O51         O  0.48039182  0.32725735  0.05287653    -0.79300
O52         O  0.50592314  0.38358043  0.91958003    -0.81000
O53         O  0.55113456  0.43618137  0.07181329    -0.83800
C54         C  0.45178345  0.32200755  0.04508222     0.97000
C55         C  0.50386709  0.31628291  0.97173900     1.04400
O56         O  0.51558861  0.38645217  0.00660697    -1.12800
O57         O  0.58222570  0.43346248  0.99093588    -0.75200
O58         O  0.57897099  0.39308086  0.03002664    -0.78700
O59         O  0.44679427  0.34087475  0.02123859    -0.79400
C60         C  0.59400679  0.41663381  0.00459567     0.95900
O61         O  0.53013656  0.38528545  0.09447450    -0.77300
O62         O  0.53322110  0.43525649  0.94048160    -0.82500
C63         C  0.48233386  0.43193222  0.99109923     0.98500
C64         C  0.52201121  0.41357281  0.91131080     1.04400
O65         O  0.46940108  0.40570745  0.96885530    -0.78200
C66         C  0.54245774  0.41531100  0.10138861     1.02700
Fe67       Fe  0.61429622  0.45285185  0.54400948     1.65800
Fe68       Fe  0.54299239  0.43619907  0.50487261     1.73200
Fe69       Fe  0.60967383  0.50693494  0.48176907     1.54400
O70         O  0.63159399  0.53291044  0.53804298    -0.81900
O71         O  0.54198306  0.44666188  0.44015481    -0.80200
O72         O  0.64958759  0.50014559  0.55821399    -0.84400
O73         O  0.63794478  0.45392980  0.49146615    -0.79300
O74         O  0.56672200  0.51197608  0.48410863    -0.81000
O75         O  0.55005653  0.39983315  0.48517661    -0.83800
C76         C  0.65591845  0.47922721  0.47057682     0.97000
C77         C  0.65192918  0.52784964  0.55874760     1.04400
O78         O  0.58876396  0.46579462  0.51084319    -1.12800
O79         O  0.53962885  0.42333432  0.56937465    -0.75200
O80         O  0.59011914  0.45182359  0.59612956    -0.78700
O81         O  0.65185667  0.50383992  0.47033499    -0.79400
C82         C  0.55970794  0.43571248  0.60047772     0.95900
O83         O  0.58381932  0.40314231  0.53552711    -0.77300
O84         O  0.53358472  0.47086753  0.52350956    -0.82500
C85         C  0.56447792  0.46255768  0.41368261     0.98500
C86         C  0.53848988  0.49424348  0.50033817     1.04400
O87         O  0.59278726  0.48347325  0.42556695    -0.78200
C88         C  0.56347711  0.38744711  0.50638072     1.02700
Fe89       Fe  0.82803850  0.36077282  0.54085124     1.65800
Fe90       Fe  0.88820978  0.43102399  0.50561715     1.73200
Fe91       Fe  0.87886204  0.36071518  0.46995225     1.54400
O92         O  0.88551703  0.33709765  0.52146816    -0.81900
O93         O  0.89552176  0.43253553  0.43921560    -0.80200
O94         O  0.83816924  0.32317486  0.55051831    -0.84400
O95         O  0.80060394  0.33782485  0.48973712    -0.79300
O96         O  0.92882817  0.40015893  0.46788520    -0.81000
O97         O  0.84752033  0.43319191  0.49246472    -0.83800
C98         C  0.80353841  0.31720318  0.46845660     0.97000
C99         C  0.86144439  0.31783992  0.54422018     1.04400
O100        O  0.86501049  0.38425222  0.50578484    -1.12800
O101        O  0.88436438  0.43433287  0.57119581    -0.75200
O102        O  0.85500219  0.38320328  0.59325425    -0.78700
O103        O  0.83135880  0.32032694  0.46248875    -0.79400
C104        C  0.87483444  0.41294730  0.60016559     0.95900
O105        O  0.81181131  0.39413352  0.53369972    -0.77300
O106        O  0.92889383  0.43005618  0.51943674    -0.82500
C107        C  0.88378182  0.41069270  0.41023975     0.98500
C108        C  0.94347392  0.42667952  0.48922186     1.04400
O109        O  0.86938767  0.38090386  0.41933531    -0.78200
C110        C  0.81973650  0.41779017  0.50854949     1.02700
Fe111      Fe  0.82361286  0.43815964  0.02524926     1.65800
Fe112      Fe  0.88514806  0.42642602  0.00657677     1.73200
Fe113      Fe  0.88472068  0.49102291  0.96406468     1.54400
O114        O  0.83958423  0.48721742  0.94675758    -0.81900
O115        O  0.92531100  0.46788397  0.02470575    -0.80200
O116        O  0.80380455  0.43792030  0.96841405    -0.84400
O117        O  0.83608891  0.48635930  0.03630104    -0.79300
O118        O  0.88069974  0.46367717  0.91261881    -0.81000
O119        O  0.87509411  0.41901043  0.07091768    -0.83800
C120        C  0.86116827  0.51467334  0.03448402     0.97000
C121        C  0.81067654  0.46293675  0.94721840     1.04400
O122        O  0.86419151  0.45151622  0.99850266    -1.12800
O123        O  0.84542360  0.38366547  0.99018573    -0.75200
O124        O  0.80536090  0.38833387  0.01542737    -0.78700
O125        O  0.88690088  0.51966196  0.01560678    -0.79400
C126        C  0.81576516  0.37148002  0.99773524     0.95900
O127        O  0.84200249  0.43794675  0.08412317    -0.77300
O128        O  0.89700800  0.43116361  0.94152548    -0.82500
C129        C  0.94319205  0.48327501  0.99500114     0.98500
C130        C  0.89051105  0.44352078  0.90949668     1.04400
O131        O  0.93347293  0.49830798  0.97078368    -0.78200
C132        C  0.86085695  0.42804725  0.09651008     1.02700
Fe133      Fe  0.50665381  0.78609863  0.37587456     1.65800
Fe134      Fe  0.56455639  0.77273488  0.34392225     1.73200
Fe135      Fe  0.55573312  0.83192347  0.29882906     1.54400
O136        O  0.50818007  0.82578952  0.29477891    -0.81900
O137        O  0.60659956  0.81548003  0.35184818    -0.80200
O138        O  0.47858500  0.77836223  0.32424484    -0.84400
O139        O  0.52034571  0.83573708  0.38066318    -0.79300
O140        O  0.54324727  0.79866445  0.25213061    -0.81000
O141        O  0.56182207  0.76917108  0.41027444    -0.83800
C142        C  0.54246498  0.86377583  0.36876566     0.97000
C143        C  0.48062237  0.80256202  0.30615289     1.04400
O144        O  0.54268619  0.79719736  0.34036774    -1.12800
O145        O  0.52331126  0.72931126  0.33629923    -0.75200
O146        O  0.48807896  0.73583473  0.37264752    -0.78700
O147        O  0.56547095  0.86720776  0.34494720    -0.79400
C148        C  0.49527703  0.71815400  0.35028769     0.95900
O149        O  0.53299136  0.79183618  0.42930411    -0.77300
O150        O  0.56802111  0.77259685  0.27664918    -0.82500
C151        C  0.61948203  0.82851104  0.31776666     0.98500
C152        C  0.55460844  0.78008497  0.24670647     1.04400
O153        O  0.60506984  0.83986592  0.29466126    -0.78200
C154        C  0.55056230  0.77978968  0.43841781     1.02700
Fe155      Fe  0.49248577  0.69633962  0.86651332     1.65800
Fe156      Fe  0.55727977  0.76770813  0.84404282     1.73200
Fe157      Fe  0.55057539  0.69847984  0.80675371     1.54400
O158        O  0.55056271  0.67188007  0.85993890    -0.81900
O159        O  0.57023926  0.77242789  0.77964034    -0.80200
O160        O  0.50046553  0.65765172  0.87867082    -0.84400
O161        O  0.47118090  0.67666879  0.81032642    -0.79300
O162        O  0.60071748  0.73745327  0.81190942    -0.81000
O163        O  0.51905817  0.77313265  0.82540361    -0.83800
C164        C  0.47573984  0.65604751  0.79159831     0.97000
C165        C  0.52396507  0.65211752  0.87830146     1.04400
O166        O  0.53325861  0.72103172  0.83902928    -1.12800
O167        O  0.54728940  0.76728084  0.90804193    -0.75200
O168        O  0.51301538  0.71552027  0.92383073    -0.78700
O169        O  0.50381503  0.65889501  0.79123030    -0.79400
C170        C  0.53317543  0.74447268  0.93461725     0.95900
O171        O  0.47824484  0.73072664  0.85656675    -0.77300
O172        O  0.59567047  0.76372216  0.86342090    -0.82500
C173        C  0.56294379  0.75252820  0.74882096     0.98500
C174        C  0.61216993  0.76381146  0.83327869     1.04400
O175        O  0.54825629  0.72203507  0.75430816    -0.78200
C176        C  0.48966847  0.75710824  0.83601716     1.02700
Fe177      Fe  0.18764052  0.47093948  0.87366050     1.65800
Fe178      Fe  0.20198114  0.41085391  0.85298192     1.73200
Fe179      Fe  0.13632123  0.40972242  0.81023982     1.54400
O180        O  0.10717304  0.40562087  0.86185606    -0.81900
O181        O  0.19711681  0.39883973  0.78738358    -0.80200
O182        O  0.13895525  0.45667569  0.88471741    -0.84400
O183        O  0.18782947  0.49066696  0.81706705    -0.79300
O184        O  0.13036278  0.36162434  0.81401067    -0.81000
O185        O  0.24421204  0.45198619  0.83783525    -0.83800
C186        C  0.16224286  0.48337315  0.79663608     0.97000
C187        C  0.11138568  0.43049451  0.88296114     1.04400
O188        O  0.17566274  0.43066806  0.84567467    -1.12800
O189        O  0.20874833  0.42086364  0.91840243    -0.75200
O190        O  0.18789433  0.45239661  0.93130208    -0.78700
O191        O  0.13835998  0.45427608  0.79549462    -0.79400
C192        C  0.19871709  0.43449676  0.94392464     0.95900
O193        O  0.23769562  0.49097443  0.86584823    -0.77300
O194        O  0.16105788  0.36925492  0.86822330    -0.82500
C195        C  0.18384648  0.40443988  0.75540824     0.98500
C196        C  0.14624277  0.35210845  0.83686550     1.04400
O197        O  0.16458159  0.41537002  0.75942885    -0.78200
C198        C  0.25474808  0.48147200  0.84682191     1.02700
Fe199      Fe  0.27403751  0.47808099  0.38264211     1.65800
Fe200      Fe  0.20103321  0.41674579  0.35253698     1.73200
Fe201      Fe  0.26927572  0.41969134  0.31961045     1.54400
O202        O  0.31094203  0.46540850  0.30798178    -0.81900
O203        O  0.19774423  0.37401930  0.36779409    -0.80200
O204        O  0.29633158  0.50034676  0.32869843    -0.84400
O205        O  0.30957272  0.46581103  0.39667727    -0.79300
O206        O  0.24830387  0.42573356  0.26661656    -0.81000
O207        O  0.20073549  0.42396160  0.41834543    -0.83800
C208        C  0.31339726  0.44119547  0.39479522     0.97000
C209        C  0.31548856  0.49414560  0.30952404     1.04400
O210        O  0.24787271  0.43788567  0.35223771    -1.12800
O211        O  0.20095095  0.45835133  0.33614941    -0.75200
O212        O  0.24362460  0.49699898  0.37058586    -0.78700
O213        O  0.29348305  0.41592112  0.37337318    -0.79400
C214        C  0.21887138  0.48779023  0.34668972     0.95900
O215        O  0.25236060  0.45710673  0.43827011    -0.77300
O216        O  0.19749196  0.40625152  0.28685514    -0.82500
C217        C  0.20165204  0.35769935  0.33995142     0.98500
C218        C  0.21846495  0.41388721  0.25778927     1.04400
O219        O  0.22882799  0.37061072  0.32100434    -0.78200
C220        C  0.22312337  0.43689915  0.44671696     1.02700
Fe221      Fe  0.18739509  0.69045286  0.36822933     1.65800
Fe222      Fe  0.19891062  0.76300665  0.34425678     1.73200
Fe223      Fe  0.13181250  0.69624717  0.30881066     1.54400
O224        O  0.13547216  0.65482207  0.29369527    -0.81900
O225        O  0.15892815  0.76319934  0.36377585    -0.80200
O226        O  0.18633126  0.67009517  0.31172837    -0.84400
O227        O  0.14002949  0.65404975  0.38004607    -0.79300
O228        O  0.15624615  0.71751179  0.25495894    -0.81000
O229        O  0.20930281  0.76236177  0.40887429    -0.83800
C230        C  0.11203477  0.65098411  0.38223591     0.97000
C231        C  0.16003555  0.65083550  0.29278406     1.04400
O232        O  0.17300431  0.71671373  0.34025097    -1.12800
O233        O  0.23994286  0.76436402  0.32542241    -0.75200
O234        O  0.23690932  0.72294051  0.36035120    -0.78700
O235        O  0.10608223  0.67142883  0.36343918    -0.79400
C236        C  0.25282540  0.74862654  0.33888438     0.95900
O237        O  0.18835913  0.71016693  0.42552699    -0.77300
O238        O  0.19112667  0.76763076  0.27899141    -0.82500
C239        C  0.14215010  0.76436293  0.33416720     0.98500
C240        C  0.17685857  0.74721304  0.24878595     1.04400
O241        O  0.12504179  0.73810631  0.31299643    -0.78200
C242        C  0.19973115  0.73959669  0.43593206     1.02700
Fe243      Fe  0.27044945  0.77434287  0.88417795     1.65800
Fe244      Fe  0.19880085  0.75664458  0.84298951     1.73200
Fe245      Fe  0.26595357  0.82656682  0.81460615     1.54400
O246        O  0.30142786  0.85338214  0.86233327    -0.81900
O247        O  0.20272336  0.75171299  0.77844552    -0.80200
O248        O  0.29223924  0.81875559  0.91444737    -0.84400
O249        O  0.30803235  0.79037210  0.84342645    -0.79300
O250        O  0.23201492  0.84051963  0.83495584    -0.81000
O251        O  0.20015607  0.71481806  0.85410313    -0.83800
C252        C  0.31508902  0.80326531  0.80738541     0.97000
C253        C  0.30977622  0.84624076  0.89762424     1.04400
O254        O  0.24534922  0.78642438  0.84747013    -1.12800
O255        O  0.19454037  0.76206625  0.90712338    -0.75200
O256        O  0.23589832  0.75681125  0.93074447    -0.78700
O257        O  0.29979227  0.81566628  0.78954600    -0.79400
C258        C  0.21092459  0.75907041  0.93701624     0.95900
O259        O  0.25170705  0.72954900  0.85479124    -0.77300
O260        O  0.18769722  0.79177383  0.83129216    -0.82500
C261        C  0.21647323  0.77421957  0.75127906     0.98500
C262        C  0.20097615  0.82221361  0.83332280     1.04400
O263        O  0.23622461  0.80367990  0.76174077    -0.78200
C264        C  0.22229204  0.70828651  0.84845451     1.02700
Fe265      Fe  0.17492755  0.11447907  0.71945394     1.65800
Fe266      Fe  0.22724971  0.10134027  0.66817670     1.73200
Fe267      Fe  0.22150922  0.16669451  0.64530123     1.54400
O268        O  0.17485161  0.16203508  0.64722246    -0.81900
O269        O  0.27201125  0.13945883  0.68080952    -0.80200
O270        O  0.14384625  0.11303408  0.67416804    -0.84400
O271        O  0.18897297  0.16285859  0.73427374    -0.79300
O272        O  0.20667872  0.13896566  0.59173304    -0.81000
O273        O  0.22515408  0.08833690  0.73250282    -0.83800
C274        C  0.21151614  0.19149295  0.72519957     0.97000
C275        C  0.14706010  0.13842867  0.65728040     1.04400
O276        O  0.20856249  0.12811213  0.67859794    -1.12800
O277        O  0.18310363  0.06306945  0.65404009    -0.75200
O278        O  0.15565924  0.06431172  0.70869036    -0.78700
O279        O  0.23347480  0.19623487  0.69872434    -0.79400
C280        C  0.15876255  0.04944425  0.67733442     0.95900
O281        O  0.20503427  0.11528304  0.76589733    -0.77300
O282        O  0.23138237  0.11073393  0.60247597    -0.82500
C283        C  0.28525732  0.16054413  0.65260430     0.98500
C284        C  0.21831012  0.12227853  0.57775742     1.04400
O285        O  0.27006080  0.17418260  0.63666514    -0.78200
C286        C  0.21954271  0.09926503  0.76620314     1.02700
Fe287      Fe  0.16614385  0.02858210  0.20735230     1.65800
Fe288      Fe  0.22395943  0.09770245  0.16936558     1.73200
Fe289      Fe  0.22178513  0.02863495  0.14338648     1.54400
O290        O  0.22878109  0.00914514  0.19906519    -0.81900
O291        O  0.23332074  0.09630217  0.10406887    -0.80200
O292        O  0.18002826  0.99447973  0.22481840    -0.84400
O293        O  0.14224847  0.00262974  0.15508317    -0.79300
O294        O  0.27056160  0.07176418  0.14049014    -0.81000
O295        O  0.18233712  0.09537103  0.14957903    -0.83800
C296        C  0.14674383  0.97981771  0.14452768     0.97000
C297        C  0.20413890  0.99004388  0.22122720     1.04400
O298        O  0.20409752  0.05167746  0.17391309    -1.12800
O299        O  0.21656568  0.10404433  0.23326534    -0.75200
O300        O  0.18919337  0.05424151  0.26017704    -0.78700
O301        O  0.17549352  0.98494632  0.13919622    -0.79400
C302        C  0.20571804  0.08470638  0.26451954     0.95900
O303        O  0.14757496  0.05966484  0.19379235    -0.77300
O304        O  0.26587607  0.10084814  0.18915002    -0.82500
C305        C  0.22470020  0.07340759  0.07692767     0.98500
C306        C  0.28180621  0.09938326  0.15929242     1.04400
O307        O  0.21269297  0.04397089  0.08753630    -0.78200
C308        C  0.15511332  0.08216212  0.16683340     1.02700
Fe309      Fe  0.94786958  0.81691931  0.70372485     1.65800
Fe310      Fe  0.87437524  0.75482408  0.67923946     1.73200
Fe311      Fe  0.94127646  0.75278394  0.65176263     1.54400
O312        O  0.98305946  0.79671283  0.63499813    -0.81900
O313        O  0.87179870  0.71454129  0.70370088    -0.80200
O314        O  0.96927290  0.83386648  0.64720614    -0.84400
O315        O  0.98336863  0.80586929  0.72267687    -0.79300
O316        O  0.91989309  0.75379872  0.59547942    -0.81000
O317        O  0.87456687  0.76852707  0.74250221    -0.83800
C318        C  0.98624103  0.78082879  0.72696391     0.97000
C319        C  0.98811778  0.82555286  0.63146149     1.04400
O320        O  0.92100669  0.77479405  0.67847450    -1.12800
O321        O  0.87469700  0.79465935  0.65470316    -0.75200
O322        O  0.91741405  0.83484130  0.68741706    -0.78700
O323        O  0.96609390  0.75396627  0.70839351    -0.79400
C324        C  0.89245495  0.82440401  0.66365389     0.95900
O325        O  0.92669307  0.80025837  0.76102294    -0.77300
O326        O  0.86976132  0.73824903  0.61596239    -0.82500
C327        C  0.87343075  0.69495015  0.67915909     0.98500
C328        C  0.89005358  0.74289014  0.58694937     1.04400
O329        O  0.90000481  0.70465139  0.65960309    -0.78200
C330        C  0.89723201  0.78171116  0.77035996     1.02700
Fe331      Fe  0.85958344  0.79622240  0.20741953     1.65800
Fe332      Fe  0.86461468  0.73286995  0.17673949     1.73200
Fe333      Fe  0.80558473  0.74454435  0.13578522     1.54400
O334        O  0.77556501  0.74021016  0.18620803    -0.81900
O335        O  0.86183126  0.72793702  0.10945066    -0.80200
O336        O  0.81193004  0.78714840  0.21657445    -0.84400
O337        O  0.86438506  0.81980106  0.15277972    -0.79300
O338        O  0.79384407  0.69418676  0.13179793    -0.81000
O339        O  0.90970654  0.77112764  0.16638930    -0.83800
C340        C  0.83990170  0.81935408  0.13742847     0.97000
C341        C  0.78246380  0.76527789  0.20897394     1.04400
O342        O  0.84316034  0.75761359  0.17411882    -1.12800
O343        O  0.87015621  0.73684826  0.24325864    -0.75200
O344        O  0.85629098  0.77306971  0.26307544    -0.78700
O345        O  0.81393900  0.79251489  0.13012546    -0.79400
C346        C  0.86374391  0.75167783  0.27169977     0.95900
O347        O  0.90882094  0.81091858  0.20095015    -0.77300
O348        O  0.82046600  0.69383641  0.18698940    -0.82500
C349        C  0.85276012  0.73998093  0.07952473     0.98500
C350        C  0.80631512  0.68032886  0.15337123     1.04400
O351        O  0.83463512  0.75191950  0.08548326    -0.78200
C352        C  0.92370548  0.79997145  0.17968742     1.02700
Fe353      Fe  0.85082312  0.02100261  0.69802573     1.65800
Fe354      Fe  0.86295871  0.09333428  0.66875644     1.73200
Fe355      Fe  0.79857550  0.02596069  0.62919697     1.54400
O356        O  0.80212017  0.98428546  0.61809586    -0.81900
O357        O  0.82110545  0.09179065  0.68275904    -0.80200
O358        O  0.85065237  0.99728245  0.64441708    -0.84400
O359        O  0.80259603  0.98599435  0.70905278    -0.79300
O360        O  0.82636948  0.04673286  0.57734283    -0.81000
O361        O  0.87039003  0.09449901  0.73402633    -0.83800
C362        C  0.77438900  0.98247324  0.70430185     0.97000
C363        C  0.82610365  0.97961191  0.62127098     1.04400
O364        O  0.83798619  0.04674905  0.66507811    -1.12800
O365        O  0.90570659  0.09590713  0.65677671    -0.75200
O366        O  0.90073097  0.05268833  0.69016764    -0.78700
O367        O  0.76954466  0.00192909  0.68132762    -0.79400
C368        C  0.91767505  0.07940374  0.67085223     0.95900
O369        O  0.85157866  0.04333803  0.75400253    -0.77300
O370        O  0.85905544  0.09711034  0.60221910    -0.82500
C371        C  0.80611815  0.09299360  0.65112886     0.98500
C372        C  0.84724276  0.07643895  0.57180852     1.04400
O373        O  0.79124862  0.06720721  0.62875497    -0.78200
C374        C  0.86229109  0.07304209  0.76245472     1.02700
Fe375      Fe  0.94778429  0.11149961  0.19599972     1.65800
Fe376      Fe  0.87430874  0.09877989  0.16893415     1.73200
Fe377      Fe  0.94108311  0.16636705  0.13761704     1.54400
O378        O  0.96337706  0.19195516  0.19358603    -0.81900
O379        O  0.87067396  0.10758810  0.10362178    -0.80200
O380        O  0.98193027  0.15918728  0.21286406    -0.84400
O381        O  0.97062332  0.11478250  0.14075848    -0.79300
O382        O  0.89900361  0.17231864  0.14023291    -0.81000
O383        O  0.87380701  0.05797794  0.14988443    -0.83800
C384        C  0.98961305  0.14164738  0.12387780     0.97000
C385        C  0.98356508  0.18672610  0.21439781     1.04400
O386        O  0.92087853  0.12518987  0.16766135    -1.12800
O387        O  0.87412681  0.08790590  0.23348827    -0.75200
O388        O  0.92600979  0.10767983  0.25251750    -0.78700
O389        O  0.98418465  0.16526843  0.12510858    -0.79400
C390        C  0.89651687  0.09645023  0.26154992     0.95900
O391        O  0.91744139  0.06244328  0.18237343    -0.77300
O392        O  0.87226579  0.13782342  0.18891749    -0.82500
C393        C  0.89171511  0.12152166  0.07453698     0.98500
C394        C  0.87298508  0.15695009  0.16146123     1.04400
O395        O  0.92143154  0.14117985  0.08289938    -0.78200
C396        C  0.89134059  0.04638985  0.16099512     1.02700
C397        C  0.86600061  0.08298703  0.80731037     0.01100
C398        C  0.89157753  0.08455748  0.83182691     0.03900
C399        C  0.89398711  0.09166653  0.87526439    -0.12100
C400        C  0.87095280  0.09751929  0.89441422     0.23200
C401        C  0.84602937  0.09713220  0.86961283    -0.12700
C402        C  0.84350213  0.08979875  0.82615061     0.04700
C403        C  0.87310341  0.10400044  0.94065020     0.27100
C404        C  0.85665366  0.07822945  0.96908888    -0.13400
C405        C  0.86148316  0.08375730  0.01304044     0.05200
C406        C  0.88216933  0.11550571  0.02891640    -0.09300
C407        C  0.89687916  0.14159444  0.99997431     0.06000
C408        C  0.89287689  0.13570050  0.95621449    -0.13700
Br409      Br  0.81535331  0.10647441  0.89554571    -0.05800
Br410      Br  0.92375605  0.07769802  0.80541262    -0.00200
Br411      Br  0.84183415  0.04711201  0.05051045     0.00300
Br412      Br  0.91563662  0.17095988  0.91721388    -0.04100
Br413      Br  0.80877556  0.08827279  0.79263325     0.00400
Br414      Br  0.92879575  0.09329550  0.90878957    -0.03400
Br415      Br  0.82845180  0.03505683  0.94725242    -0.04300
Br416      Br  0.92257058  0.18596914  0.01944927    -0.00300
C417        C  0.85733774  0.08661485  0.52772320     0.01100
C418        C  0.83420819  0.08423602  0.49756949     0.03900
C419        C  0.84117092  0.08709794  0.45423663    -0.12100
C420        C  0.87123935  0.09207482  0.44057514     0.23200
C421        C  0.89493866  0.09582996  0.47069830    -0.12700
C422        C  0.88814058  0.09347062  0.51417250     0.04700
C423        C  0.87766297  0.09303583  0.39452799     0.27100
C424        C  0.86834755  0.06407211  0.37201962    -0.13400
C425        C  0.87395489  0.06495630  0.32832215     0.05200
C426        C  0.88868411  0.09476464  0.30684761    -0.09300
C427        C  0.89843866  0.12376135  0.32952152     0.06000
C428        C  0.89260905  0.12285449  0.37307030    -0.13700
Br429      Br  0.93617485  0.10274051  0.45211329    -0.05800
Br430      Br  0.79278774  0.07693970  0.51572211    -0.00200
Br431      Br  0.86323800  0.02567648  0.29826235     0.00300
Br432      Br  0.90477482  0.16241255  0.40350977    -0.04100
Br433      Br  0.92052731  0.09811815  0.55493976     0.00400
Br434      Br  0.80917981  0.08322820  0.41321352    -0.03400
Br435      Br  0.84807123  0.02323574  0.40132995    -0.04300
Br436      Br  0.92011074  0.16491828  0.30086952    -0.00300
C437        C  0.84136997  0.85079117  0.13452691     0.01100
C438        C  0.83558872  0.86192996  0.09606943     0.03900
C439        C  0.84118476  0.89381617  0.09334829    -0.12100
C440        C  0.85234695  0.91421414  0.12913062     0.23200
C441        C  0.85766300  0.90296629  0.16763730    -0.12700
C442        C  0.85236127  0.87149673  0.17042667     0.04700
C443        C  0.85967904  0.94805718  0.12749694     0.27100
C444        C  0.89115947  0.97263061  0.11732869    -0.13400
C445        C  0.90130061  0.00505835  0.12708557     0.05200
C446        C  0.88040601  0.01271522  0.14869310    -0.09300
C447        C  0.84848174  0.98808811  0.15758969     0.06000
C448        C  0.83793619  0.95594969  0.14586109    -0.13700
Br449      Br  0.87344544  0.93138950  0.21660962    -0.05800
Br450      Br  0.82280302  0.83460245  0.04662272    -0.00200
Br451      Br  0.94368551  0.03868292  0.11050186     0.00300
Br452      Br  0.79468093  0.92194992  0.15855660    -0.04100
Br453      Br  0.86136723  0.85803764  0.22410652     0.00400
Br454      Br  0.83491403  0.91015484  0.04064325    -0.03400
Br455      Br  0.92111591  0.96141015  0.09324222    -0.04300
Br456      Br  0.82016537  0.99742774  0.18994563    -0.00300
C457        C  0.88326374  0.84735235  0.64561532     0.01100
C458        C  0.87526196  0.84559416  0.60221399     0.03900
C459        C  0.86063523  0.86274266  0.58625264    -0.12100
C460        C  0.85787542  0.88495308  0.61234551     0.23200
C461        C  0.86932929  0.88952161  0.65448184    -0.12700
C462        C  0.88077824  0.86990680  0.67154310     0.04700
C463        C  0.84308285  0.90392163  0.59677239     0.27100
C464        C  0.86248596  0.93387361  0.57682035    -0.13400
C465        C  0.85340420  0.95765712  0.57793842     0.05200
C466        C  0.82571252  0.95182080  0.60022491    -0.09300
C467        C  0.80344211  0.91991163  0.61289751     0.06000
C468        C  0.81212089  0.89582851  0.61088397    -0.13700
Br469      Br  0.86907002  0.92268405  0.68904419    -0.05800
Br470      Br  0.88786310  0.82293909  0.56366525    -0.00200
Br471      Br  0.87986477  0.99925808  0.55192225     0.00300
Br472      Br  0.78371378  0.85293894  0.63253288    -0.04100
Br473      Br  0.89155791  0.87327666  0.73077907     0.00400
Br474      Br  0.84332180  0.85491516  0.52944128    -0.03400
Br475      Br  0.90312000  0.94360271  0.55259405    -0.04300
Br476      Br  0.76304189  0.90986552  0.63774445    -0.00300
C477        C  0.88999231  0.77294696  0.81537862     0.01100
C478        C  0.87512728  0.78591090  0.84047044     0.03900
C479        C  0.87045472  0.77851095  0.88384381    -0.12100
C480        C  0.88027418  0.75779796  0.90222886     0.23200
C481        C  0.89453435  0.74433589  0.87695736    -0.12700
C482        C  0.89986989  0.75230463  0.83391708     0.04700
C483        C  0.87528937  0.75007605  0.94805852     0.27100
C484        C  0.89932789  0.76980396  0.97799914    -0.13400
C485        C  0.89312827  0.76447329  0.02153575     0.05200
C486        C  0.86257952  0.73993378  0.03536430    -0.09300
C487        C  0.83914639  0.71934922  0.00527084     0.06000
C488        C  0.84576223  0.72393671  0.96186094    -0.13700
Br489      Br  0.90626260  0.71455051  0.90135080    -0.05800
Br490      Br  0.86230768  0.81467747  0.81590451    -0.00200
Br491      Br  0.92570312  0.79216848  0.06215128     0.00300
Br492      Br  0.81406737  0.69508108  0.92093600    -0.04100
Br493      Br  0.92090120  0.73486426  0.80021857     0.00400
Br494      Br  0.85072127  0.79681078  0.91842807    -0.03400
Br495      Br  0.94013253  0.80510108  0.95911422    -0.04300
Br496      Br  0.79719779  0.68586216  0.02332792    -0.00300
C497        C  0.87941770  0.73590775  0.54131906     0.01100
C498        C  0.89680887  0.72749390  0.51280674     0.03900
C499        C  0.89072038  0.72611390  0.46902746    -0.12100
C500        C  0.86860094  0.73466727  0.45256928     0.23200
C501        C  0.84963630  0.74084537  0.48051790    -0.12700
C502        C  0.85376172  0.73977834  0.52468918     0.04700
C503        C  0.86680166  0.73856341  0.40592218     0.27100
C504        C  0.89170393  0.76626315  0.38605306    -0.13400
C505        C  0.89144945  0.76945200  0.34189299     0.05200
C506        C  0.86608302  0.74529271  0.31706791    -0.09300
C507        C  0.84119045  0.71751265  0.33676290     0.06000
C508        C  0.84164570  0.71405369  0.38104192    -0.13700
Br509      Br  0.81905277  0.75237872  0.45804853    -0.05800
Br510      Br  0.92868637  0.71660604  0.53239198    -0.00200
Br511      Br  0.92618460  0.80693074  0.31496664     0.00300
Br512      Br  0.80782865  0.67586013  0.40781735    -0.04100
Br513      Br  0.82351556  0.74324632  0.56103099     0.00400
Br514      Br  0.91314924  0.71293392  0.43080084    -0.03400
Br515      Br  0.92610193  0.80018235  0.41955478    -0.04300
Br516      Br  0.80594402  0.68480117  0.30317915    -0.00300
C517        C  0.02058166  0.14559996  0.10873176     0.01100
C518        C  0.02014424  0.12391621  0.07820102     0.03900
C519        C  0.04454534  0.11546846  0.07871791    -0.12100
C520        C  0.06832858  0.12753238  0.11111880     0.23200
C521        C  0.07105124  0.15228792  0.13791304    -0.12700
C522        C  0.04809331  0.16230068  0.13512989     0.04700
C523        C  0.08910117  0.11315531  0.11990711     0.27100
C524        C  0.07715215  0.08510458  0.14489889    -0.13400
C525        C  0.09831857  0.07515699  0.16163698     0.05200
C526        C  0.13209316  0.09354900  0.15356049    -0.09300
C527        C  0.14384396  0.12282970  0.12995788     0.06000
C528        C  0.12220273  0.13108856  0.11106024    -0.13700
Br529      Br  0.10438815  0.17038310  0.18142375    -0.05800
Br530      Br  0.98576887  0.10569420  0.03647603    -0.00200
Br531      Br  0.08013197  0.03769603  0.19801053     0.00300
Br532      Br  0.13788290  0.16817530  0.07419756    -0.04100
Br533      Br  0.05359823  0.19758876  0.16957629     0.00400
Br534      Br  0.04496227  0.08672056  0.03656047    -0.03400
Br535      Br  0.03143695  0.06077002  0.15701087    -0.04300
Br536      Br  0.18942981  0.15547918  0.12815420    -0.00300
C537        C  0.11811635  0.94653131  0.14580403     0.01100
C538        C  0.09866349  0.93671873  0.18239445     0.03900
C539        C  0.06986820  0.90673001  0.18329914    -0.12100
C540        C  0.05853471  0.88735716  0.14684973     0.23200
C541        C  0.07839983  0.89584916  0.11113067    -0.12700
C542        C  0.10844701  0.92531408  0.11078329     0.04700
C543        C  0.02365436  0.86209053  0.14524954     0.27100
C544        C  0.01322797  0.83062133  0.16010688    -0.13400
C545        C  0.98063854  0.81025167  0.17152003     0.05200
C546        C  0.95826346  0.82147418  0.16836653    -0.09300
C547        C  0.96843721  0.85216370  0.15016297     0.06000
C548        C  0.00088926  0.87218126  0.13846544    -0.13700
Br549      Br  0.06384455  0.86753318  0.06268247    -0.05800
Br550      Br  0.10899697  0.96459051  0.23123109    -0.00200
Br551      Br  0.96758336  0.76769255  0.19351231     0.00300
Br552      Br  0.01493121  0.91449197  0.11476465    -0.04100
Br553      Br  0.13450088  0.93820695  0.06094948     0.00400
Br554      Br  0.04440357  0.89269032  0.23408852    -0.03400
Br555      Br  0.04413370  0.81618996  0.16620353    -0.04300
Br556      Br  0.93816318  0.86691031  0.13926712    -0.00300
C557        C  0.13411011  0.01534449  0.66641057     0.01100
C558        C  0.10053614  0.00319586  0.67155317     0.03900
C559        C  0.07790254  0.97134823  0.65825187    -0.12100
C560        C  0.08834808  0.95278862  0.63600381     0.23200
C561        C  0.12142845  0.96571046  0.62822308    -0.12700
C562        C  0.14428292  0.99549647  0.64624770     0.04700
C563        C  0.06559532  0.91812475  0.62615208     0.27100
C564        C  0.06808601  0.89427425  0.64945230    -0.13400
C565        C  0.04648369  0.86140266  0.64119522     0.05200
C566        C  0.01889761  0.85226287  0.61574343    -0.09300
C567        C  0.01792629  0.87566014  0.58952765     0.06000
C568        C  0.04191407  0.90860472  0.59379038    -0.13700
Br569      Br  0.13539202  0.94187125  0.59354083    -0.05800
Br570      Br  0.08479812  0.02989676  0.69497771    -0.00200
Br571      Br  0.05389425  0.82912955  0.66646345     0.00300
Br572      Br  0.04118638  0.94064051  0.55742629    -0.04100
Br573      Br  0.18924711  0.00660424  0.64668589     0.00400
Br574      Br  0.03267927  0.95273239  0.67161391    -0.03400
Br575      Br  0.09857186  0.90637223  0.69605492    -0.04300
Br576      Br  0.98254285  0.86224344  0.54974272    -0.00300
C577        C  0.23022792  0.08068289  0.03135800     0.01100
C578        C  0.24961435  0.07117920  0.00920966     0.03900
C579        C  0.25154475  0.07359327  0.96498358    -0.12100
C580        C  0.23412041  0.08547041  0.94257025     0.23200
C581        C  0.21579133  0.09617297  0.96467312    -0.12700
C582        C  0.21390613  0.09386092  0.00896538     0.04700
C583        C  0.23455302  0.08647947  0.89571610     0.27100
C584        C  0.25720608  0.11490400  0.87499052    -0.13400
C585        C  0.25382331  0.11822584  0.83140527     0.05200
C586        C  0.22866264  0.09258619  0.80804948    -0.09300
C587        C  0.20774628  0.06307544  0.82816760     0.06000
C588        C  0.21051315  0.06010937  0.87203805    -0.13700
Br589      Br  0.19245912  0.11310412  0.93384243    -0.05800
Br590      Br  0.27393838  0.05505438  0.03940738    -0.00200
Br591      Br  0.28206397  0.15881459  0.80415619     0.00300
Br592      Br  0.18015346  0.02074838  0.90027959    -0.04100
Br593      Br  0.18734486  0.10684980  0.03845350     0.00400
Br594      Br  0.27762354  0.06020313  0.93478195    -0.03400
Br595      Br  0.29186075  0.14977254  0.90691556    -0.04300
Br596      Br  0.17339012  0.02787893  0.79621706    -0.00300
C597        C  0.21130486  0.09719822  0.30805110     0.01100
C598        C  0.24104826  0.10670678  0.32885279     0.03900
C599        C  0.24378120  0.11129910  0.37292310    -0.12100
C600        C  0.21671097  0.10620446  0.39616771     0.23200
C601        C  0.18739543  0.09802745  0.37505484    -0.12700
C602        C  0.18476040  0.09365938  0.33109035     0.04700
C603        C  0.21905059  0.11057458  0.44265834     0.27100
C604        C  0.21203308  0.08435065  0.46945666    -0.13400
C605        C  0.21121016  0.08783940  0.51349034     0.05200
C606        C  0.21787340  0.11783641  0.53111830    -0.09300
C607        C  0.22417462  0.14391808  0.50359383     0.06000
C608        C  0.22555630  0.14037371  0.45980533    -0.13700
Br609      Br  0.15061866  0.09211730  0.40666030    -0.05800
Br610      Br  0.27745910  0.11189588  0.29718510    -0.00200
Br611      Br  0.19724402  0.05025206  0.54863713     0.00300
Br612      Br  0.23653596  0.17646281  0.42256856    -0.04100
Br613      Br  0.14460726  0.08242381  0.30214014     0.00400
Br614      Br  0.28424643  0.12388958  0.40174074    -0.03400
Br615      Br  0.20302317  0.04346081  0.44541471    -0.04300
Br616      Br  0.23122734  0.18515809  0.52438335    -0.00300
C617        C  0.11746966  0.14079236  0.65392096     0.01100
C618        C  0.10472037  0.14302762  0.61453144     0.03900
C619        C  0.07318429  0.13854284  0.61188742    -0.12100
C620        C  0.05439516  0.13126134  0.64850280     0.23200
C621        C  0.06813264  0.13162315  0.68812253    -0.12700
C622        C  0.09943003  0.13624352  0.69087359     0.04700
C623        C  0.01915941  0.11934051  0.64625551     0.27100
C624        C  0.00748848  0.13966678  0.65915203    -0.13400
C625        C  0.97461864  0.12633223  0.66899277     0.05200
C626        C  0.95276503  0.09256054  0.66404866    -0.09300
C627        C  0.96444723  0.07241253  0.64959741     0.06000
C628        C  0.99750395  0.08586788  0.64052299    -0.13700
Br629      Br  0.04311482  0.12374038  0.73877670    -0.05800
Br630      Br  0.12902555  0.14888198  0.56410485    -0.00200
Br631      Br  0.96077314  0.15430359  0.69366209     0.00300
Br632      Br  0.01364078  0.05827088  0.62162218    -0.04100
Br633      Br  0.11640027  0.13448356  0.74584874     0.00400
Br634      Br  0.05511312  0.14114651  0.55835500    -0.03400
Br635      Br  0.03727240  0.18563251  0.66567745    -0.04300
Br636      Br  0.93579559  0.02631737  0.64253046    -0.00300
C637        C  0.17682885  0.83366418  0.83253545     0.01100
C638        C  0.17328277  0.84865981  0.79613846     0.03900
C639        C  0.14191781  0.84119708  0.78153969    -0.12100
C640        C  0.11384283  0.81992869  0.80448703     0.23200
C641        C  0.11822944  0.80962144  0.84451442    -0.12700
C642        C  0.14944378  0.81690770  0.85859331     0.04700
C643        C  0.07993065  0.80798952  0.78679968     0.27100
C644        C  0.06182363  0.82233439  0.79936575    -0.13400
C645        C  0.02972814  0.81043611  0.78395637     0.05200
C646        C  0.01575700  0.78562303  0.75241779    -0.09300
C647        C  0.03359164  0.77030492  0.74130656     0.06000
C648        C  0.06492410  0.78092539  0.75920833    -0.13700
Br649      Br  0.08111156  0.78347049  0.87898434    -0.05800
Br650      Br  0.21160900  0.87931634  0.76682012    -0.00200
Br651      Br  0.00455850  0.82746748  0.80867657     0.00300
Br652      Br  0.08774021  0.75838429  0.74603248    -0.04100
Br653      Br  0.15469125  0.80193600  0.91294973     0.00400
Br654      Br  0.13727154  0.85883450  0.72913566    -0.03400
Br655      Br  0.08152227  0.85903623  0.83742099    -0.04300
Br656      Br  0.01683317  0.73627789  0.69939231    -0.00300
C657        C  0.20001824  0.95901007  0.23953283     0.01100
C658        C  0.18975532  0.95051075  0.28162311     0.03900
C659        C  0.17770369  0.91836774  0.29618464    -0.12100
C660        C  0.17556307  0.89390425  0.26901705     0.23200
C661        C  0.18661594  0.90246161  0.22729746    -0.12700
C662        C  0.19894989  0.93470485  0.21275203     0.04700
C663        C  0.16588983  0.86057047  0.28598346     0.27100
C664        C  0.18921560  0.85604342  0.30735463    -0.13400
C665        C  0.18112489  0.82558715  0.32468806     0.05200
C666        C  0.14927480  0.79779169  0.31922233    -0.09300
C667        C  0.12565632  0.80282445  0.29854180     0.06000
C668        C  0.13388671  0.83395455  0.28239632    -0.13700
Br669      Br  0.18442434  0.86958286  0.18986050    -0.05800
Br670      Br  0.19338578  0.98349341  0.32001126    -0.00200
Br671      Br  0.21545189  0.82437255  0.35618372     0.00300
Br672      Br  0.10121230  0.84074547  0.25630767    -0.04100
Br673      Br  0.21326782  0.94494518  0.15533365     0.00400
Br674      Br  0.16406563  0.90760870  0.35375930    -0.03400
Br675      Br  0.23299367  0.89252690  0.31284156    -0.04300
Br676      Br  0.08128747  0.76800708  0.29573261    -0.00300
C677        C  0.20098463  0.74690503  0.48148247     0.01100
C678        C  0.23041136  0.76916708  0.50172788     0.03900
C679        C  0.23155032  0.77350844  0.54582577    -0.12100
C680        C  0.20343110  0.75536484  0.56985344     0.23200
C681        C  0.17402660  0.73334960  0.54960642    -0.12700
C682        C  0.17265918  0.72947388  0.50555879     0.04700
C683        C  0.20490446  0.75873189  0.61656225     0.27100
C684        C  0.21385654  0.74004988  0.64160631    -0.13400
C685        C  0.21662797  0.74417653  0.68577603     0.05200
C686        C  0.20966826  0.76647961  0.70540906    -0.09300
C687        C  0.19850825  0.78339878  0.68020762     0.06000
C688        C  0.19674298  0.78005940  0.63598017    -0.13700
Br689      Br  0.13584366  0.70765102  0.58261799    -0.05800
Br690      Br  0.26957058  0.79206475  0.46961277    -0.00200
Br691      Br  0.23131008  0.72009996  0.71852392     0.00300
Br692      Br  0.18328224  0.80478213  0.60172527    -0.04100
Br693      Br  0.13150397  0.70077674  0.47823011     0.00400
Br694      Br  0.27182844  0.80349350  0.57376829    -0.03400
Br695      Br  0.22238834  0.70885555  0.61491263    -0.04300
Br696      Br  0.18342278  0.80945942  0.70628813    -0.00300
C697        C  0.20187352  0.75898351  0.98129713     0.01100
C698        C  0.18933585  0.73025705  0.00494313     0.03900
C699        C  0.18594108  0.73114421  0.04888557    -0.12100
C700        C  0.19475603  0.76076341  0.06932966     0.23200
C701        C  0.20680285  0.78941228  0.04555311    -0.12700
C702        C  0.21089245  0.78863299  0.00175715     0.04700
C703        C  0.19149651  0.76170007  0.11584382     0.27100
C704        C  0.16129546  0.75334611  0.13299017    -0.13400
C705        C  0.15737165  0.75148815  0.17697740     0.05200
C706        C  0.18351842  0.75757590  0.20419412    -0.09300
C707        C  0.21435500  0.76821171  0.18710633     0.06000
C708        C  0.21828902  0.77013937  0.14298435    -0.13700
Br709      Br  0.21856723  0.82982676  0.07345142    -0.05800
Br710      Br  0.17782474  0.68990509  0.97697504    -0.00200
Br711      Br  0.11603490  0.74067925  0.20012325     0.00300
Br712      Br  0.26001669  0.78288010  0.11946961    -0.04100
Br713      Br  0.23160551  0.82862550  0.97047834     0.00400
Br714      Br  0.17033415  0.69199711  0.08138618    -0.03400
Br715      Br  0.12502642  0.74331131  0.09590841    -0.04300
Br716      Br  0.25081651  0.77830896  0.22372332    -0.00300
C717        C  0.21048954  0.51182772  0.32923289     0.01100
C718        C  0.21161763  0.53677369  0.35444521     0.03900
C719        C  0.20022479  0.55678194  0.33803908    -0.12100
C720        C  0.18749054  0.55201410  0.29651993     0.23200
C721        C  0.18793779  0.52844425  0.27061715    -0.12700
C722        C  0.20053575  0.50936707  0.28636040     0.04700
C723        C  0.17448378  0.57261364  0.28050960     0.27100
C724        C  0.14364731  0.56622632  0.29304394    -0.13400
C725        C  0.13541967  0.59066578  0.28985795     0.05200
C726        C  0.15828886  0.62149910  0.27438959    -0.09300
C727        C  0.18606073  0.62525368  0.25412699     0.06000
C728        C  0.19451409  0.60106403  0.25780519    -0.13700
Br729      Br  0.17090307  0.52212763  0.21364876    -0.05800
Br730      Br  0.22874151  0.54411252  0.41130446    -0.00200
Br731      Br  0.09447488  0.58276921  0.31090621     0.00300
Br732      Br  0.23483117  0.60821742  0.23526583    -0.04100
Br733      Br  0.20780464  0.48295571  0.24728447     0.00400
Br734      Br  0.20179245  0.59086902  0.37254656    -0.03400
Br735      Br  0.11407918  0.52499883  0.31796364    -0.04300
Br736      Br  0.21391253  0.66508181  0.22483752    -0.00300
C737        C  0.01203478  0.21313237  0.23890283     0.01100
C738        C  0.02466695  0.20458501  0.27438773     0.03900
C739        C  0.05636035  0.22578786  0.29010615    -0.12100
C740        C  0.07541842  0.25714668  0.27315232     0.23200
C741        C  0.06205313  0.26672494  0.23980646    -0.12700
C742        C  0.03090551  0.24487281  0.22242314     0.04700
C743        C  0.10885536  0.28014709  0.29142065     0.27100
C744        C  0.11234096  0.29241076  0.33274824    -0.13400
C745        C  0.14340817  0.31276566  0.35079827     0.05200
C746        C  0.17178936  0.32606716  0.32582998    -0.09300
C747        C  0.16832995  0.31276341  0.28463179     0.06000
C748        C  0.13731683  0.28898700  0.26854594    -0.13700
Br749      Br  0.08705035  0.30963595  0.21657644    -0.05800
Br750      Br  0.99863821  0.16358030  0.30250875    -0.00200
Br751      Br  0.14630161  0.32004287  0.41100705     0.00300
Br752      Br  0.13368216  0.26826329  0.21493086    -0.04100
Br753      Br  0.01607467  0.25788035  0.17323066     0.00400
Br754      Br  0.07444100  0.21084511  0.33356655    -0.03400
Br755      Br  0.07425758  0.28277478  0.36437398    -0.04300
Br756      Br  0.20526262  0.32665278  0.24894904    -0.00300
C757        C  0.15463533  0.32680331  0.82191796     0.01100
C758        C  0.18568788  0.33043796  0.83205930     0.03900
C759        C  0.19565854  0.30985723  0.81403243    -0.12100
C760        C  0.17431141  0.28311295  0.78893229     0.23200
C761        C  0.14313108  0.27839822  0.77974070    -0.12700
C762        C  0.13371124  0.30049739  0.79495501     0.04700
C763        C  0.18526257  0.26040790  0.77258290     0.27100
C764        C  0.19483725  0.26203806  0.73027701    -0.13400
C765        C  0.20566494  0.24118054  0.71519526     0.05200
C766        C  0.20846004  0.21916298  0.74266377    -0.09300
C767        C  0.20135065  0.21949774  0.78570694     0.06000
C768        C  0.18912990  0.23925715  0.80032397    -0.13700
Br769      Br  0.11326540  0.24136110  0.74611563    -0.05800
Br770      Br  0.21665121  0.36351414  0.87018229    -0.00200
Br771      Br  0.21491952  0.24194371  0.65608657     0.00300
Br772      Br  0.17742253  0.23712777  0.85868222    -0.04100
Br773      Br  0.09155242  0.29365529  0.77942902     0.00400
Br774      Br  0.23982296  0.31916696  0.82195709    -0.03400
Br775      Br  0.19354550  0.29343095  0.69303538    -0.04300
Br776      Br  0.21004420  0.19388003  0.82516718    -0.00300
C777        C  0.20910045  0.40983650  0.21174154     0.01100
C778        C  0.23144087  0.41090921  0.18151803     0.03900
C779        C  0.22720365  0.41505369  0.13856745    -0.12100
C780        C  0.19930865  0.41502695  0.12427170     0.23200
C781        C  0.17510770  0.41015678  0.15298815    -0.12700
C782        C  0.17969977  0.40730578  0.19661850     0.04700
C783        C  0.19575970  0.41945838  0.07853244     0.27100
C784        C  0.20714338  0.45078085  0.06246587    -0.13400
C785        C  0.20829536  0.45577174  0.01860117     0.05200
C786        C  0.19880427  0.42936871  0.99026850    -0.09300
C787        C  0.18638191  0.39776894  0.00679163     0.06000
C788        C  0.18475459  0.39291800  0.05072976    -0.13700
Br789      Br  0.13608747  0.40834070  0.13207774    -0.05800
Br790      Br  0.26690276  0.40387697  0.19658183    -0.00200
Br791      Br  0.22369713  0.49930925  0.99825711     0.00300
Br792      Br  0.16766368  0.34986580  0.07345892    -0.04100
Br793      Br  0.14489535  0.39927649  0.23400970     0.00400
Br794      Br  0.26040001  0.42194257  0.09879462    -0.03400
Br795      Br  0.22212020  0.48699580  0.10102591    -0.04300
Br796      Br  0.16954449  0.36047793  0.96998355    -0.00300
C797        C  0.18990414  0.39789571  0.71134418     0.01100
C798        C  0.16427039  0.38644090  0.68115682     0.03900
C799        C  0.17080562  0.38911523  0.63780727    -0.12100
C800        C  0.20288467  0.40292929  0.62402376     0.23200
C801        C  0.22784333  0.40979730  0.65380360    -0.12700
C802        C  0.22113942  0.40615430  0.69745015     0.04700
C803        C  0.20991061  0.41220188  0.57874951     0.27100
C804        C  0.21267916  0.39158711  0.54948504    -0.13400
C805        C  0.21635707  0.39944765  0.50619477     0.05200
C806        C  0.21590135  0.42721023  0.49155938    -0.09300
C807        C  0.21350119  0.44795240  0.52094124     0.06000
C808        C  0.21087067  0.44067983  0.56434645    -0.13700
Br809      Br  0.27139870  0.42569003  0.63488745    -0.05800
Br810      Br  0.11971474  0.36558462  0.69882105    -0.00200
Br811      Br  0.22395348  0.37317314  0.46718222     0.00300
Br812      Br  0.20882190  0.46987065  0.60454938    -0.04100
Br813      Br  0.25457316  0.41181200  0.73723955     0.00400
Br814      Br  0.13593010  0.37522734  0.59686686    -0.03400
Br815      Br  0.21132622  0.35258532  0.56880544    -0.04300
Br816      Br  0.21399335  0.48645756  0.50166158    -0.00300
C817        C  0.21295747  0.67503494  0.83371145     0.01100
C818        C  0.18699728  0.65861847  0.80404777     0.03900
C819        C  0.17878300  0.62779002  0.78882645    -0.12100
C820        C  0.19390765  0.61154210  0.80581091     0.23200
C821        C  0.21907943  0.62711257  0.83604659    -0.12700
C822        C  0.22938625  0.65917221  0.84893705     0.04700
C823        C  0.18139893  0.57715236  0.79409569     0.27100
C824        C  0.15151938  0.55289168  0.80996336    -0.13400
C825        C  0.14028111  0.52014299  0.80064591     0.05200
C826        C  0.16041605  0.51128195  0.77972986    -0.09300
C827        C  0.18798534  0.53559661  0.75916943     0.06000
C828        C  0.19863246  0.56855574  0.76643652    -0.13700
Br829      Br  0.23838352  0.60380688  0.86117657    -0.05800
Br830      Br  0.16122407  0.67680603  0.78369674    -0.00200
Br831      Br  0.09800204  0.48758930  0.81798522     0.00300
Br832      Br  0.23790481  0.60178814  0.74119014    -0.04100
Br833      Br  0.26460056  0.67991262  0.88957562     0.00400
Br834      Br  0.14621054  0.60715377  0.74471752    -0.03400
Br835      Br  0.12746620  0.56426704  0.84770230    -0.04300
Br836      Br  0.21202054  0.52323792  0.72325739    -0.00300
C837        C  0.46788512  0.76951898  0.82353990     0.01100
C838        C  0.44901517  0.77365802  0.85396502     0.03900
C839        C  0.42771701  0.78455821  0.84172375    -0.12100
C840        C  0.42495714  0.79126965  0.79902769     0.23200
C841        C  0.44447165  0.78821599  0.76878388    -0.12700
C842        C  0.46555810  0.77693035  0.78082320     0.04700
C843        C  0.39807463  0.79666512  0.78597706     0.27100
C844        C  0.36739910  0.76941384  0.77797508    -0.13400
C845        C  0.33967006  0.77232212  0.77969580     0.05200
C846        C  0.34248976  0.80279424  0.78722288    -0.09300
C847        C  0.37352206  0.83077785  0.78894290     0.06000
C848        C  0.40137313  0.82764758  0.78893997    -0.13700
Br849      Br  0.44124037  0.79847828  0.71071461    -0.05800
Br850      Br  0.45198784  0.76428827  0.91253109    -0.00200
Br851      Br  0.29777349  0.73358765  0.77807942     0.00300
Br852      Br  0.44381318  0.86505363  0.79690633    -0.04100
Br853      Br  0.48849653  0.76843885  0.73782041     0.00400
Br854      Br  0.40131199  0.78933831  0.88333146    -0.03400
Br855      Br  0.36320022  0.72737030  0.76948032    -0.04300
Br856      Br  0.37760524  0.87270367  0.79674304    -0.00300
C857        C  0.74711404  0.95291126  0.72473161     0.01100
C858        C  0.71866025  0.93110402  0.70171381     0.03900
C859        C  0.69787201  0.89918288  0.71671897    -0.12100
C860        C  0.70452765  0.88881676  0.75542916     0.23200
C861        C  0.73178910  0.91110893  0.77948272    -0.12700
C862        C  0.75258457  0.94287938  0.76466127     0.04700
C863        C  0.68084625  0.85630484  0.77399086     0.27100
C864        C  0.65698123  0.85427206  0.80113102    -0.13400
C865        C  0.63664677  0.82532232  0.82305900     0.05200
C866        C  0.63825118  0.79644192  0.81612945    -0.09300
C867        C  0.66299451  0.79904272  0.78943312     0.06000
C868        C  0.68372942  0.82852864  0.76813413    -0.13700
Br869      Br  0.74081200  0.89774683  0.83301840    -0.05800
Br870      Br  0.70840898  0.94403135  0.64870621    -0.00200
Br871      Br  0.60782358  0.82781318  0.86311995     0.00300
Br872      Br  0.71579543  0.83092385  0.72992658    -0.04100
Br873      Br  0.78795744  0.97324636  0.80057052     0.00400
Br874      Br  0.66066668  0.86899057  0.68360762    -0.03400
Br875      Br  0.65192701  0.89186157  0.80732220    -0.04300
Br876      Br  0.67114869  0.76352324  0.78573186    -0.00300
C877        C  0.28757752  0.50554442  0.83221557     0.01100
C878        C  0.31309775  0.52393319  0.86102066     0.03900
C879        C  0.34427669  0.54610743  0.84610548    -0.12100
C880        C  0.35021669  0.54945309  0.80231919     0.23200
C881        C  0.32494613  0.53032455  0.77366846    -0.12700
C882        C  0.29362477  0.50911778  0.78850568     0.04700
C883        C  0.38259391  0.57432252  0.78667676     0.27100
C884        C  0.38747513  0.60424922  0.77174295    -0.13400
C885        C  0.41905698  0.62979179  0.76430765     0.05200
C886        C  0.44604887  0.62659799  0.77567036    -0.09300
C887        C  0.44090233  0.59526062  0.78432986     0.06000
C888        C  0.40905399  0.56905871  0.78916918    -0.13700
Br889      Br  0.33345110  0.53301369  0.71405102    -0.05800
Br890      Br  0.30554452  0.51798570  0.92076331    -0.00200
Br891      Br  0.42557013  0.67003771  0.74083759     0.00300
Br892      Br  0.40144668  0.52623698  0.80149867    -0.04100
Br893      Br  0.25852069  0.48649379  0.74855830     0.00400
Br894      Br  0.37896049  0.57203715  0.88562347    -0.03400
Br895      Br  0.35130785  0.61134546  0.76511225    -0.04300
Br896      Br  0.47676959  0.58802307  0.79263484    -0.00300
C897        C  0.46993526  0.68396045  0.33847561     0.01100
C898        C  0.47421510  0.66847220  0.30235898     0.03900
C899        C  0.44912532  0.63788269  0.28862440    -0.12100
C900        C  0.42047862  0.62138907  0.31141118     0.23200
C901        C  0.41609506  0.63582712  0.34737490    -0.12700
C902        C  0.44049834  0.66688733  0.36087817     0.04700
C903        C  0.39624290  0.58734166  0.30037608     0.27100
C904        C  0.36815345  0.57999701  0.27684373    -0.13400
C905        C  0.34253787  0.54768473  0.27399009     0.05200
C906        C  0.34528862  0.52264092  0.29392858    -0.09300
C907        C  0.37546473  0.52968907  0.31143962     0.06000
C908        C  0.40046059  0.56209653  0.31609907    -0.13700
Br909      Br  0.37638086  0.61228386  0.37848151    -0.05800
Br910      Br  0.51392347  0.68703654  0.27053699    -0.00200
Br911      Br  0.30260085  0.53782453  0.24552300     0.00300
Br912      Br  0.43920906  0.57231936  0.34803630    -0.04100
Br913      Br  0.43307396  0.68392709  0.41202675     0.00400
Br914      Br  0.45355136  0.61790986  0.23804304    -0.03400
Br915      Br  0.36394388  0.61449095  0.25156569    -0.04300
Br916      Br  0.38204404  0.49564234  0.33247399    -0.00300
C917        C  0.64611850  0.82263509  0.30160571     0.01100
C918        C  0.64387388  0.79181283  0.30812544     0.03900
C919        C  0.66561373  0.78398422  0.28886690    -0.12100
C920        C  0.69167607  0.80693489  0.26504899     0.23200
C921        C  0.69504781  0.83797187  0.25961068    -0.12700
C922        C  0.67253375  0.84578581  0.27758037     0.04700
C923        C  0.71610962  0.79814420  0.24888339     0.27100
C924        C  0.74008726  0.79935988  0.27663813    -0.13400
C925        C  0.75975118  0.78627536  0.26485947     0.05200
C926        C  0.75667602  0.77235418  0.22430944    -0.09300
C927        C  0.73274200  0.77142722  0.19626046     0.16800
C928        C  0.71256722  0.78393303  0.20859842    -0.13700
Br929      Br  0.72982069  0.86928718  0.22591123    -0.05800
Br930      Br  0.61132869  0.75852108  0.34321965    -0.00200
Br931      Br  0.79006487  0.78620935  0.30570261     0.00300
Br932      Br  0.67996909  0.78180178  0.17008965    -0.04100
Br933      Br  0.67748676  0.88795203  0.26827408     0.00400
Br934      Br  0.65935040  0.74075084  0.29398525    -0.03400
Br935      Br  0.74578417  0.81913629  0.33144730    -0.04300
Br936      Br  0.72831438  0.75455837  0.13981513    -0.00300
C937        C  0.57167568  0.76426527  0.70468188     0.01100
C938        C  0.57346999  0.79327530  0.69026428     0.03900
C939        C  0.57415106  0.79921437  0.64654869    -0.12100
C940        C  0.57296905  0.77638528  0.61743056     0.23200
C941        C  0.57449784  0.74936664  0.63181403    -0.12700
C942        C  0.57574737  0.74434270  0.67515416     0.04700
C943        C  0.56796770  0.77917826  0.57174799     0.27100
C944        C  0.53621765  0.76637979  0.55580773    -0.13400
C945        C  0.53059381  0.76535341  0.51211554     0.05200
C946        C  0.55683140  0.77762563  0.48388691    -0.09300
C947        C  0.58864923  0.79006943  0.49998969     0.06000
C948        C  0.59417364  0.79103394  0.54390128    -0.13700
Br949      Br  0.57245255  0.71779517  0.59193801    -0.05800
Br950      Br  0.57518130  0.82525807  0.72906012    -0.00200
Br951      Br  0.48639947  0.74515254  0.49133090     0.00300
Br952      Br  0.63756262  0.80855341  0.56640263    -0.04100
Br953      Br  0.58560516  0.71142514  0.69313315     0.00400
Br954      Br  0.57515563  0.83777728  0.62605357    -0.03400
Br955      Br  0.50028324  0.74956355  0.59416969    -0.04300
Br956      Br  0.62480855  0.80648966  0.46238180    -0.00300
C957        C  0.55273255  0.76845828  0.20302747     0.01100
C958        C  0.58080194  0.78184896  0.17825423     0.03900
C959        C  0.57846661  0.77678676  0.13450380    -0.12100
C960        C  0.54789539  0.75901655  0.11490857     0.23200
C961        C  0.51966809  0.74520742  0.13922046    -0.12700
C962        C  0.52204880  0.74996456  0.18320083     0.04700
C963        C  0.54560709  0.75643866  0.06844163     0.27100
C964        C  0.54120983  0.77893884  0.04463370    -0.13400
C965        C  0.53869372  0.77630721  0.00040196     0.05200
C966        C  0.54058625  0.75107831  0.98006596    -0.09300
C967        C  0.54791570  0.73045820  0.00391027     0.06000
C968        C  0.54977158  0.73273426  0.04805065    -0.13700
Br969      Br  0.47779247  0.72141107  0.11172689    -0.05800
Br970      Br  0.62221592  0.81128633  0.20219701    -0.00200
Br971      Br  0.53236497  0.80708425  0.96827952     0.00300
Br972      Br  0.55830723  0.70362814  0.08084106    -0.04100
Br973      Br  0.48310136  0.73318446  0.21585105     0.00400
Br974      Br  0.61704495  0.79623375  0.10060346    -0.03400
Br975      Br  0.53879181  0.81339971  0.07290331    -0.04300
Br976      Br  0.55808665  0.70078051  0.97613103    -0.00300
C977        C  0.45085424  0.80486727  0.30541453     0.01100
C978        C  0.43430534  0.80268488  0.26729375     0.03900
C979        C  0.40280899  0.79833804  0.26820629    -0.12100
C980        C  0.38840041  0.79719482  0.30709613     0.23200
C981        C  0.40584146  0.80204926  0.34485152    -0.12700
C982        C  0.43593275  0.80381656  0.34433118     0.04700
C983        C  0.35323744  0.78490727  0.30988142     0.27100
C984        C  0.34173980  0.80658560  0.31409096    -0.13400
C985        C  0.30927149  0.79496460  0.32479060     0.05200
C986        C  0.28748156  0.76103218  0.32908001    -0.09300
C987        C  0.29910205  0.73929565  0.32290358     0.06000
C988        C  0.33205405  0.75137441  0.31484207    -0.13700
Br989      Br  0.38675951  0.80305549  0.39793967    -0.05800
Br990      Br  0.45252199  0.80055269  0.21449954    -0.00200
Br991      Br  0.29643056  0.82665661  0.33653541     0.00300
Br992      Br  0.34891088  0.72210361  0.31318587    -0.04100
Br993      Br  0.45276398  0.79915971  0.39792727     0.00400
Br994      Br  0.37819567  0.79162838  0.21681704    -0.03400
Br995      Br  0.37129967  0.85249293  0.30743361    -0.04300
Br996      Br  0.27046660  0.69279192  0.32360053    -0.00300
C997        C  0.81269896  0.65461677  0.13499107     0.01100
C998        C  0.84303346  0.65604321  0.14309052     0.03900
C999        C  0.85122568  0.63526938  0.12189237    -0.12100
C1000       C  0.82860468  0.61028112  0.09561109     0.23200
C1001       C  0.79776105  0.60710109  0.08925480    -0.12700
C1002       C  0.79002636  0.62937341  0.10816655     0.04700
C1003       C  0.83684033  0.58576462  0.07897412     0.27100
C1004       C  0.85608451  0.59224940  0.04282818    -0.13400
C1005       C  0.86708642  0.57090173  0.03037210     0.05200
C1006       C  0.85787301  0.54193380  0.05306475    -0.09300
C1007       C  0.83991445  0.53650077  0.09047959     0.06000
C1008       C  0.82960449  0.55819038  0.10321212    -0.13700
Br1009     Br  0.76602399  0.57167841  0.05508229    -0.05800
Br1010     Br  0.87444226  0.68452787  0.18469555    -0.00200
Br1011     Br  0.89441953  0.58164269  0.98178786     0.00300
Br1012     Br  0.80597690  0.55060803  0.15484295    -0.04100
Br1013     Br  0.74713731  0.62306123  0.10069207     0.00400
Br1014     Br  0.89405110  0.64066738  0.12910551    -0.03400
Br1015     Br  0.86730023  0.63067118  0.01043461    -0.04300
Br1016     Br  0.83072930  0.50008636  0.12622841    -0.00300
C1017       C  0.97045969  0.47684155  0.98404940     0.01100
C1018       C  0.96745663  0.44589030  0.99274649     0.03900
C1019       C  0.99087780  0.43829335  0.97882291    -0.12100
C1020       C  0.01774794  0.46077632  0.95580044     0.23200
C1021       C  0.02199309  0.49199069  0.94906776    -0.12700
C1022       C  0.99891494  0.50016010  0.96359955     0.04700
C1023       C  0.04081846  0.45086016  0.93825389     0.27100
C1024       C  0.06735203  0.45423489  0.96258127    -0.13400
C1025       C  0.08879896  0.44481633  0.94593372     0.05200
C1026       C  0.08387851  0.43129347  0.90482451    -0.09300
C1027       C  0.05520812  0.42455927  0.88256444     0.06000
C1028       C  0.03435561  0.43499183  0.89871147    -0.13700
Br1029     Br  0.05960517  0.52353147  0.91958343    -0.05800
Br1030     Br  0.93128407  0.41181696  0.02265635    -0.00200
Br1031     Br  0.12412569  0.44878147  0.98068800     0.00300
Br1032     Br  0.99686743  0.42807188  0.86638392    -0.04100
Br1033     Br  0.00736307  0.54393455  0.95744239     0.00400
Br1034     Br  0.98621102  0.39634080  0.99079103    -0.03400
Br1035     Br  0.07387982  0.47123778  0.01925548    -0.04300
Br1036     Br  0.04484756  0.40219811  0.82904241    -0.00300
C1037       C  0.81307303  0.12609785  0.63593750     0.01100
C1038       C  0.84318098  0.15471185  0.64685211     0.03900
C1039       C  0.85180875  0.18501085  0.62874640    -0.12100
C1040       C  0.83043750  0.18830510  0.60118859     0.23200
C1041       C  0.80010663  0.16067272  0.59148486    -0.12700
C1042       C  0.79139464  0.12985732  0.60875151     0.04700
C1043       C  0.83903439  0.22166515  0.58631739     0.27100
C1044       C  0.83082939  0.24083875  0.61104227    -0.13400
C1045       C  0.83990200  0.27280551  0.59886731     0.05200
C1046       C  0.85782416  0.28656806  0.56148507    -0.09300
C1047       C  0.86775298  0.26772091  0.53810891     0.06000
C1048       C  0.85820971  0.23552732  0.55040811    -0.13700
Br1049     Br  0.77040204  0.16542806  0.55467833    -0.05800
Br1050     Br  0.87396246  0.15493350  0.68743125    -0.00200
Br1051     Br  0.82825062  0.29760194  0.63532990     0.00300
Br1052     Br  0.87150695  0.21004722  0.51825485    -0.04100
Br1053     Br  0.74839191  0.09373075  0.59840403     0.00400
Br1054     Br  0.89342443  0.22293726  0.64189827    -0.03400
Br1055     Br  0.80765346  0.22311780  0.66275297    -0.04300
Br1056     Br  0.89334729  0.28466731  0.48800251    -0.00300
C1057       C  0.97418963  0.45702305  0.47562297     0.01100
C1058       C  0.98312596  0.46373169  0.43261850     0.03900
C1059       C  0.00522592  0.49590296  0.41936292    -0.12100
C1060       C  0.01764246  0.52221437  0.44810863     0.23200
C1061       C  0.00972198  0.51549638  0.49099729    -0.12700
C1062       C  0.99013627  0.48321732  0.50492778     0.04700
C1063       C  0.04099684  0.55653999  0.43409696     0.27100
C1064       C  0.07421161  0.57083625  0.44405953    -0.13400
C1065       C  0.09648373  0.60290005  0.43147833     0.05200
C1066       C  0.08650997  0.62085274  0.40516108    -0.09300
C1067       C  0.05263998  0.60703483  0.39760039     0.06000
C1068       C  0.03023986  0.57530421  0.41218462    -0.13700
Br1069     Br  0.02439635  0.55094761  0.53073097    -0.05800
Br1070     Br  0.96543459  0.42963843  0.39089485    -0.00200
Br1071     Br  0.14035089  0.62184283  0.45380662     0.00300
Br1072     Br  0.98440399  0.55712203  0.40213881    -0.04100
Br1073     Br  0.98659340  0.47531813  0.56507114     0.00400
Br1074     Br  0.01835229  0.50429999  0.36132459    -0.03400
Br1075     Br  0.08944528  0.54571268  0.47439506    -0.04300
Br1076     Br  0.03593656  0.63096160  0.36797232    -0.00300
C1077       C  0.89477203  0.43495705  0.86636506     0.01100
C1078       C  0.86855849  0.40881543  0.84513242     0.03900
C1079       C  0.87007864  0.40444502  0.80155997    -0.12100
C1080       C  0.89733678  0.42693033  0.77883352     0.23200
C1081       C  0.92423198  0.45201193  0.80024837    -0.12700
C1082       C  0.92277764  0.45628516  0.84382300     0.04700
C1083       C  0.89588359  0.42673352  0.73215547     0.27100
C1084       C  0.90500010  0.40771138  0.70882108    -0.13400
C1085       C  0.90028683  0.40515499  0.66482685     0.05200
C1086       C  0.88679160  0.42196889  0.64403007    -0.09300
C1087       C  0.88055541  0.44335380  0.66704013     0.06000
C1088       C  0.88444677  0.44520349  0.71118267    -0.13700
Br1089     Br  0.96227547  0.48144706  0.76912990    -0.05800
Br1090     Br  0.82907084  0.38140484  0.87453997    -0.00200
Br1091     Br  0.91254833  0.37869404  0.63293817     0.00300
Br1092     Br  0.87238603  0.47164296  0.74338251    -0.04100
Br1093     Br  0.95783810  0.49341658  0.87135856     0.00400
Br1094     Br  0.83418901  0.36867783  0.77239820    -0.03400
Br1095     Br  0.92293951  0.38448405  0.73751341    -0.04300
Br1096     Br  0.86528616  0.46893541  0.63861236    -0.00300
C1097       C  0.88687904  0.41891886  0.36419150     0.01100
C1098       C  0.89057487  0.44862820  0.34903543     0.03900
C1099       C  0.88939083  0.45350381  0.30519273    -0.12100
C1100       C  0.88336458  0.42857426  0.27645201     0.23200
C1101       C  0.88207060  0.40018844  0.29089399    -0.12700
C1102       C  0.88485142  0.39568411  0.33415439     0.04700
C1103       C  0.87794435  0.43134153  0.23076438     0.27100
C1104       C  0.84604288  0.41646935  0.21437352    -0.13400
C1105       C  0.84043236  0.41402143  0.17046652     0.05200
C1106       C  0.86678887  0.42779256  0.14257815    -0.09300
C1107       C  0.89879870  0.44307189  0.15924616     0.06000
C1108       C  0.90426096  0.44438233  0.20313799    -0.13700
Br1109     Br  0.87638375  0.36723645  0.25057844    -0.05800
Br1110     Br  0.89649319  0.48281566  0.38700939    -0.00200
Br1111     Br  0.79657575  0.38914875  0.14872357     0.00300
Br1112     Br  0.94779425  0.46304319  0.22577213    -0.04100
Br1113     Br  0.88786910  0.35800553  0.35013540     0.00400
Br1114     Br  0.89635921  0.49440378  0.28397517    -0.03400
Br1115     Br  0.81001049  0.39842524  0.25244380    -0.04300
Br1116     Br  0.93560227  0.46308837  0.12268342    -0.00300
C1117       C  0.68108652  0.55403230  0.58242697     0.01100
C1118       C  0.69301714  0.54537270  0.61858071     0.03900
C1119       C  0.72493841  0.56582644  0.63407120    -0.12100
C1120       C  0.74474915  0.59676874  0.61658586     0.23200
C1121       C  0.73207827  0.60670427  0.58286050    -0.12700
C1122       C  0.70088671  0.58529746  0.56519936     0.04700
C1123       C  0.77828970  0.61908658  0.63481209     0.27100
C1124       C  0.78205668  0.63463537  0.67390482    -0.13400
C1125       C  0.81327122  0.65558756  0.69134705     0.05200
C1126       C  0.84186347  0.66382348  0.66825470    -0.09300
C1127       C  0.83783055  0.64580487  0.63072202     0.06000
C1128       C  0.80635108  0.62362883  0.61440629    -0.13700
Br1129     Br  0.75797510  0.64967876  0.56027104    -0.05800
Br1130     Br  0.66543117  0.50558553  0.64843239    -0.00200
Br1131     Br  0.81566649  0.67119078  0.74838671     0.00300
Br1132     Br  0.80134649  0.59915524  0.56372746    -0.04100
Br1133     Br  0.68667183  0.59843711  0.51565599     0.00400
Br1134     Br  0.74227135  0.55070121  0.67822909    -0.03400
Br1135     Br  0.74395616  0.62789453  0.70317644    -0.04300
Br1136     Br  0.87480050  0.64991504  0.60165370    -0.00300
C1137       C  0.50832428  0.49619122  0.48911566     0.01100
C1138       C  0.50311368  0.50551857  0.44847349     0.03900
C1139       C  0.47127520  0.49674859  0.43403594    -0.12100
C1140       C  0.44377249  0.47692501  0.45868854     0.23200
C1141       C  0.44899990  0.46861388  0.49952805    -0.12700
C1142       C  0.48077436  0.48008101  0.51552945     0.04700
C1143       C  0.40947931  0.46595490  0.44317551     0.27100
C1144       C  0.39176859  0.47913987  0.46121235    -0.13400
C1145       C  0.35905172  0.46762928  0.44934427     0.05200
C1146       C  0.34391123  0.44481191  0.41583692    -0.09300
C1147       C  0.36138358  0.43072902  0.39865962     0.06000
C1148       C  0.39358735  0.44088727  0.41277729    -0.13700
Br1149     Br  0.41218846  0.43939366  0.53293540    -0.05800
Br1150     Br  0.53897459  0.52966933  0.41152569    -0.00200
Br1151     Br  0.33470941  0.48227216  0.48159917     0.00300
Br1152     Br  0.41632537  0.42063872  0.39002372    -0.04100
Br1153     Br  0.48591321  0.47446822  0.57494385     0.00400
Br1154     Br  0.46512370  0.51136553  0.37985871    -0.03400
Br1155     Br  0.41288779  0.51421670  0.50157738    -0.04300
Br1156     Br  0.34256855  0.39864065  0.35421426    -0.00300
C1157       C  0.68360828  0.47933738  0.45018397     0.01100
C1158       C  0.67800980  0.44932530  0.43432403     0.03900
C1159       C  0.70134313  0.44008965  0.44075749    -0.12100
C1160       C  0.73205337  0.46267991  0.45755905     0.23200
C1161       C  0.73995673  0.49513384  0.46408428    -0.12700
C1162       C  0.71552075  0.50340862  0.46108323     0.04700
C1163       C  0.75492026  0.45167777  0.47081763     0.27100
C1164       C  0.75852014  0.44652495  0.51395083    -0.13400
C1165       C  0.77911551  0.43477383  0.52662569     0.05200
C1166       C  0.79597663  0.42778003  0.49614868    -0.09300
C1167       C  0.79131959  0.43186405  0.45286051     0.06000
C1168       C  0.77140672  0.44434614  0.44037023    -0.13700
Br1169     Br  0.78353538  0.52739192  0.48027953    -0.05800
Br1170     Br  0.63682773  0.41986568  0.40768854    -0.00200
Br1171     Br  0.78467455  0.42917538  0.58577974     0.00300
Br1172     Br  0.76646896  0.45127843  0.38135023    -0.04100
Br1173     Br  0.72522586  0.54666169  0.47515009     0.00400
Br1174     Br  0.68974497  0.39551778  0.43147742    -0.03400
Br1175     Br  0.73482908  0.45524839  0.55571273    -0.04300
Br1176     Br  0.81031137  0.41825378  0.40997107    -0.00300
C1177       C  0.30801443  0.13159770  0.14117329     0.01100
C1178       C  0.33740093  0.13600223  0.12479463     0.03900
C1179       C  0.36138116  0.16675735  0.10883773    -0.12100
C1180       C  0.35573894  0.19316278  0.10674798     0.23200
C1181       C  0.32614715  0.18856538  0.12120243    -0.12700
C1182       C  0.30346464  0.15913800  0.14033081     0.04700
C1183       C  0.38068030  0.22629397  0.09067813     0.27100
C1184       C  0.40086256  0.25142831  0.11924125    -0.13400
C1185       C  0.42246197  0.28322968  0.10470448     0.05200
C1186       C  0.42415578  0.29071835  0.06134052    -0.09300
C1187       C  0.40314163  0.26576116  0.03289388     0.06000
C1188       C  0.38146667  0.23398945  0.04752507    -0.13700
Br1189     Br  0.31656489  0.22320762  0.11373200    -0.05800
Br1190     Br  0.34605136  0.10078728  0.12723945    -0.00200
Br1191     Br  0.44931448  0.31711774  0.14444414     0.00300
Br1192     Br  0.35203640  0.20085469  0.00855944    -0.04100
Br1193     Br  0.26723168  0.15929714  0.16626278     0.00400
Br1194     Br  0.40237206  0.17317471  0.09027282    -0.03400
Br1195     Br  0.39831144  0.24233937  0.17873288    -0.04300
Br1196     Br  0.40487813  0.27425624  0.97324855    -0.00300
C1197       C  0.62577291  0.42421890  0.98798118     0.01100
C1198       C  0.65376597  0.43829026  0.01379955     0.03900
C1199       C  0.68383050  0.44582155  0.99689964    -0.12100
C1200       C  0.68671217  0.44280575  0.95300998     0.23200
C1201       C  0.65901145  0.43106477  0.92668783    -0.12700
C1202       C  0.62841306  0.41986046  0.94450314     0.04700
C1203       C  0.71864553  0.45086492  0.93544129     0.27100
C1204       C  0.74481238  0.48306566  0.93685036    -0.13400
C1205       C  0.77686538  0.48918093  0.93411326     0.05200
C1206       C  0.78243274  0.46317849  0.92711091    -0.09300
C1207       C  0.75587751  0.43283459  0.91480713     0.06000
C1208       C  0.72408530  0.42594855  0.92178028    -0.13700
Br1209     Br  0.66310858  0.43160118  0.86621004    -0.05800
Br1210     Br  0.65145502  0.44960710  0.07128607    -0.00200
Br1211     Br  0.81227439  0.53238970  0.94392758     0.00300
Br1212     Br  0.68893004  0.38161372  0.91774190    -0.04100
Br1213     Br  0.58988677  0.39692006  0.90961695     0.00400
Br1214     Br  0.72086737  0.45980407  0.03428149    -0.03400
Br1215     Br  0.73650177  0.51813934  0.94615752    -0.04300
Br1216     Br  0.76343495  0.39969243  0.89250972    -0.00300
C1217       C  0.48241982  0.46305166  0.97823196     0.01100
C1218       C  0.46315368  0.46382887  0.94402781     0.03900
C1219       C  0.46812932  0.49385639  0.92772709    -0.12100
C1220       C  0.49173797  0.52376270  0.94561808     0.23200
C1221       C  0.50904320  0.52332033  0.98150768    -0.12700
C1222       C  0.50491719  0.49375644  0.99761162     0.04700
C1223       C  0.49911132  0.55604344  0.92709456     0.27100
C1224       C  0.52334124  0.57139904  0.89651889    -0.13400
C1225       C  0.53229821  0.60283644  0.88132091     0.05200
C1226       C  0.51796692  0.62033872  0.89773595    -0.09300
C1227       C  0.49422354  0.60491283  0.92970658     0.06000
C1228       C  0.48447349  0.57295521  0.94320782    -0.13700
Br1229     Br  0.53920323  0.56430836  0.00834723    -0.05800
Br1230     Br  0.42884395  0.42414340  0.91967382    -0.00200
Br1231     Br  0.56284163  0.62020747  0.83595768     0.00300
Br1232     Br  0.45074706  0.55190072  0.98431166    -0.04100
Br1233     Br  0.53218285  0.49803278  0.04593071     0.00400
Br1234     Br  0.44254123  0.49441159  0.88055901    -0.03400
Br1235     Br  0.54432586  0.54883413  0.87549730    -0.04300
Br1236     Br  0.47526002  0.62729126  0.95763054    -0.00300
C1237       C  0.55832620  0.45695926  0.36723266     0.01100
C1238       C  0.53728110  0.42539630  0.35083867     0.03900
C1239       C  0.53325310  0.42010579  0.30689895    -0.12100
C1240       C  0.55087134  0.44581823  0.27891266     0.23200
C1241       C  0.57161368  0.47719002  0.29464878    -0.12700
C1242       C  0.57563234  0.48290271  0.33843458     0.04700
C1243       C  0.54953378  0.43940781  0.23293777     0.27100
C1244       C  0.57029119  0.42958997  0.21585159    -0.13400
C1245       C  0.56820815  0.42202772  0.17267494     0.05200
C1246       C  0.54640222  0.42570914  0.14594893    -0.09300
C1247       C  0.52547280  0.43528328  0.16320082     0.06000
C1248       C  0.52723427  0.44239743  0.20655611    -0.13700
Br1249     Br  0.59503768  0.51225939  0.25548907    -0.05800
Br1250     Br  0.51664368  0.38821493  0.38743772    -0.00200
Br1251     Br  0.59389527  0.40473481  0.15088865     0.00300
Br1252     Br  0.49870245  0.45555693  0.23025586    -0.04100
Br1253     Br  0.60598408  0.52670434  0.35721977     0.00400
Br1254     Br  0.50413114  0.37731019  0.28445883    -0.03400
Br1255     Br  0.60140749  0.42628563  0.25195486    -0.04300
Br1256     Br  0.49194125  0.43503909  0.12845534    -0.00300
C1257       C  0.52617380  0.42246045  0.86593516     0.01100
C1258       C  0.49948809  0.40549249  0.83762171     0.03900
C1259       C  0.50372522  0.41030552  0.79397115    -0.12100
C1260       C  0.53489226  0.42982914  0.77783614     0.23200
C1261       C  0.56139823  0.44759113  0.80568037    -0.12700
C1262       C  0.55675984  0.44514187  0.84967034     0.04700
C1263       C  0.53958223  0.43068041  0.73157731     0.27100
C1264       C  0.53826148  0.40383238  0.71090635    -0.13400
C1265       C  0.54178981  0.40418334  0.66690493     0.05200
C1266       C  0.54820732  0.43194381  0.64385339    -0.09300
C1267       C  0.55015148  0.45896045  0.66456093     0.06000
C1268       C  0.54462770  0.45786702  0.70806215    -0.13700
Br1269     Br  0.60433117  0.47393093  0.78345145    -0.05800
Br1270     Br  0.45661732  0.37516745  0.85766314    -0.00200
Br1271     Br  0.53996362  0.36760996  0.63835860     0.00300
Br1272     Br  0.54427544  0.49370166  0.73549797    -0.04100
Br1273     Br  0.59268528  0.47227258  0.88685681     0.00400
Br1274     Br  0.46682658  0.38994918  0.75574596    -0.03400
Br1275     Br  0.53318581  0.36725201  0.74315074    -0.04300
Br1276     Br  0.56265989  0.49833710  0.63366062    -0.00300
C1277       C  0.41506333  0.10527367  0.53870479     0.01100
C1278       C  0.39191592  0.08581880  0.56889117     0.03900
C1279       C  0.37075243  0.09553598  0.58637882    -0.12100
C1280       C  0.37492194  0.12661748  0.57768941     0.23200
C1281       C  0.39860264  0.14622653  0.54827654    -0.12700
C1282       C  0.41603607  0.13433945  0.52643298     0.04700
C1283       C  0.35404262  0.13856926  0.59748908     0.27100
C1284       C  0.33319969  0.14478395  0.57209551    -0.13400
C1285       C  0.31656219  0.15950762  0.58936342     0.05200
C1286       C  0.31520164  0.16273615  0.63343856    -0.09300
C1287       C  0.33679751  0.15737848  0.65887755     0.06000
C1288       C  0.35689701  0.14666730  0.64084331    -0.13700
Br1289     Br  0.40833579  0.19027476  0.53860897    -0.05800
Br1290     Br  0.38951550  0.04607553  0.58636405    -0.00200
Br1291     Br  0.29847186  0.17783275  0.55177452     0.00300
Br1292     Br  0.38832195  0.14299726  0.67567998    -0.04100
Br1293     Br  0.43639202  0.15566401  0.47522365     0.00400
Br1294     Br  0.33552152  0.06590688  0.62120849    -0.03400
Br1295     Br  0.32539209  0.13106418  0.51379870    -0.04300
Br1296     Br  0.33974382  0.16580199  0.71867309    -0.00300
C1297       C  0.77274423  0.28770399  0.45558757     0.01100
C1298       C  0.74451779  0.29029166  0.45250605     0.03900
C1299       C  0.71418295  0.26345480  0.46127510    -0.12100
C1300       C  0.71106843  0.23282257  0.46703250     0.23200
C1301       C  0.73810317  0.22891352  0.46194752    -0.12700
C1302       C  0.76920395  0.25640757  0.45768495     0.04700
C1303       C  0.67904536  0.20499716  0.47783392     0.27100
C1304       C  0.67170985  0.19500210  0.52012198    -0.13400
C1305       C  0.63988574  0.17140574  0.53100583     0.05200
C1306       C  0.61535071  0.15808832  0.49958516    -0.09300
C1307       C  0.62286506  0.16882297  0.45744627     0.06000
C1308       C  0.65476635  0.19127297  0.44644430    -0.13700
Br1309     Br  0.73227395  0.18589185  0.46220248    -0.05800
Br1310     Br  0.74711089  0.33080644  0.43729066    -0.00200
Br1311     Br  0.63016233  0.15749427  0.58869975     0.00300
Br1312     Br  0.66531120  0.20410144  0.38832942    -0.04100
Br1313     Br  0.80615461  0.25040959  0.45754810     0.00400
Br1314     Br  0.67727596  0.26919632  0.46858918    -0.03400
Br1315     Br  0.70527253  0.21410591  0.56305645    -0.04300
Br1316     Br  0.58911977  0.15585515  0.41508802    -0.00300
C1317       C  0.46266342  0.98566869  0.44044693     0.01100
C1318       C  0.45875704  0.95944238  0.46568158     0.03900
C1319       C  0.47056558  0.93889998  0.45239199    -0.12100
C1320       C  0.49001264  0.94657134  0.41604826     0.23200
C1321       C  0.49230783  0.97179965  0.38990629    -0.12700
C1322       C  0.47553085  0.98823934  0.39996547     0.04700
C1323       C  0.50619884  0.92729640  0.40384409     0.27100
C1324       C  0.52957963  0.92555093  0.43032771    -0.13400
C1325       C  0.54254904  0.90549656  0.41908024     0.05200
C1326       C  0.53685414  0.89145688  0.37843209    -0.09300
C1327       C  0.51738427  0.89750420  0.35014613     0.06000
C1328       C  0.49915809  0.91131334  0.36437044    -0.13700
Br1329     Br  0.52053990  0.98639487  0.34190489    -0.05800
Br1330     Br  0.43603265  0.95115977  0.51798631    -0.00200
Br1331     Br  0.56842088  0.89743366  0.45891823     0.00300
Br1332     Br  0.46241127  0.90511274  0.33078556    -0.04100
Br1333     Br  0.46631159  0.01032236  0.35621494     0.00400
Br1334     Br  0.45948090  0.90005248  0.48367161    -0.03400
Br1335     Br  0.54453624  0.95096247  0.48146379    -0.04300
Br1336     Br  0.51820777  0.89084384  0.29058693    -0.00300
C1337       C  0.51434594  0.19198286  0.46830988     0.01100
C1338       C  0.51879369  0.20800063  0.50750555     0.03900
C1339       C  0.52367854  0.23930923  0.50858737    -0.12100
C1340       C  0.52652803  0.25569983  0.47074279     0.23200
C1341       C  0.52167875  0.23990795  0.43159083    -0.12700
C1342       C  0.51495505  0.20762326  0.43037985     0.04700
C1343       C  0.53643788  0.29015133  0.47350156     0.27100
C1344       C  0.51258136  0.29889369  0.47673717    -0.13400
C1345       C  0.52138302  0.33045396  0.48918903     0.05200
C1346       C  0.55435744  0.35370296  0.49698418    -0.09300
C1347       C  0.57823059  0.34465916  0.49412862     0.06000
C1348       C  0.56920209  0.31289914  0.48220929    -0.13700
Br1349     Br  0.52489848  0.26281072  0.38016541    -0.05800
Br1350     Br  0.51887267  0.18801712  0.56064616    -0.00200
Br1351     Br  0.48757100  0.34025845  0.50050901     0.00300
Br1352     Br  0.60127718  0.29957138  0.48063427    -0.04100
Br1353     Br  0.50838454  0.18553512  0.37721450     0.00400
Br1354     Br  0.52703747  0.26023915  0.56221764    -0.03400
Br1355     Br  0.46757473  0.26669442  0.46716355    -0.04300
Br1356     Br  0.62315235  0.37487608  0.50764976    -0.00300
C1357       C  0.67995185  0.10200773  0.06230317     0.01100
C1358       C  0.69268817  0.12456697  0.09644364     0.03900
C1359       C  0.72461979  0.13628400  0.11220357    -0.12100
C1360       C  0.74401553  0.12425007  0.09651132     0.23200
C1361       C  0.73079975  0.10015919  0.06461348    -0.12700
C1362       C  0.69915707  0.08909785  0.04757947     0.04700
C1363       C  0.77753284  0.13574610  0.11518025     0.27100
C1364       C  0.80577981  0.16013018  0.09567461    -0.13400
C1365       C  0.83716300  0.16991872  0.11265398     0.05200
C1366       C  0.84101023  0.15531830  0.14971296    -0.09300
C1367       C  0.81214614  0.13397951  0.17203132     0.06000
C1368       C  0.78105359  0.12327656  0.15390359    -0.13700
Br1369     Br  0.75700591  0.08334721  0.04305549    -0.05800
Br1370     Br  0.66598057  0.13864401  0.12390329    -0.00200
Br1371     Br  0.87427529  0.20512262  0.08625089     0.00300
Br1372     Br  0.74277013  0.09028894  0.18159647    -0.04100
Br1373     Br  0.68364933  0.05780030  0.00214993     0.00400
Br1374     Br  0.74260610  0.17024042  0.15435572    -0.03400
Br1375     Br  0.80124633  0.17997060  0.04514591    -0.04300
Br1376     Br  0.81375217  0.12048760  0.22926610    -0.00300
C1377       C  0.50051394  0.28388308  0.96644837     0.01100
C1378       C  0.50503306  0.26879122  0.00241404     0.03900
C1379       C  0.50814247  0.24131429  0.99805643    -0.12100
C1380       C  0.50708957  0.22857740  0.95782329     0.23200
C1381       C  0.50065940  0.24218906  0.92200759    -0.12700
C1382       C  0.49776634  0.27012294  0.92624664     0.04700
C1383       C  0.51668899  0.20352074  0.95420583     0.27100
C1384       C  0.54961093  0.21356281  0.94860670    -0.13400
C1385       C  0.56100733  0.19196106  0.95643748     0.05200
C1386       C  0.53952429  0.15999176  0.97002790    -0.09300
C1387       C  0.50609965  0.14949679  0.97346823     0.06000
C1388       C  0.49480946  0.17121346  0.96541701    -0.13700
Br1389     Br  0.49706491  0.22314363  0.86734174    -0.05800
Br1390     Br  0.50937346  0.28635537  0.05841369    -0.00200
Br1391     Br  0.60626207  0.20673019  0.94856082     0.00300
Br1392     Br  0.44980500  0.15787614  0.97342016    -0.04100
Br1393     Br  0.49378857  0.29161200  0.87695737     0.00400
Br1394     Br  0.51606315  0.22218689  0.04747537    -0.03400
Br1395     Br  0.57958959  0.25790321  0.93311917    -0.04300
Br1396     Br  0.47584882  0.10650546  0.99341866    -0.00300
C1397       C  0.51005962  0.97704790  0.98023775     0.01100
C1398       C  0.48669853  0.96120383  0.01186058     0.03900
C1399       C  0.45355503  0.94041636  0.00129009    -0.12100
C1400       C  0.44349010  0.93279953  0.95872174     0.23200
C1401       C  0.46751097  0.94442665  0.92750392    -0.12700
C1402       C  0.50053910  0.96613387  0.93811461     0.04700
C1403       C  0.40816116  0.91098114  0.94678796     0.27100
C1404       C  0.39376643  0.87707811  0.94985411    -0.13400
C1405       C  0.36126582  0.85627151  0.93643803     0.05200
C1406       C  0.34253601  0.86901927  0.91798665    -0.09300
C1407       C  0.35699001  0.90323408  0.91596145     0.06000
C1408       C  0.38925934  0.92391507  0.93089023    -0.13700
Br1409     Br  0.45478486  0.93097181  0.86979076    -0.05800
Br1410     Br  0.50101146  0.96574401  0.06972822    -0.00200
Br1411     Br  0.34410604  0.81006648  0.94212419     0.00300
Br1412     Br  0.40788348  0.97033464  0.92996720    -0.04100
Br1413     Br  0.53233585  0.97951461  0.89473356     0.00400
Br1414     Br  0.42176991  0.92347411  0.04514233    -0.03400
Br1415     Br  0.41945903  0.85910450  0.97126629    -0.04300
Br1416     Br  0.33254931  0.92223660  0.89391775    -0.00300
C1417       C  0.55037833  0.09606106  0.12863336     0.01100
C1418       C  0.52695922  0.06681211  0.14748044     0.03900
C1419       C  0.52449462  0.06439056  0.19173677    -0.12100
C1420       C  0.54440145  0.09144772  0.21749212     0.23200
C1421       C  0.56597963  0.12130455  0.19884160    -0.12700
C1422       C  0.56885432  0.12372892  0.15468856     0.04700
C1423       C  0.53905374  0.08966541  0.26371173     0.27100
C1424       C  0.51367747  0.09335278  0.27878674    -0.13400
C1425       C  0.50678159  0.09016325  0.32194544     0.05200
C1426       C  0.52659291  0.08489986  0.35142018    -0.09300
C1427       C  0.55272625  0.08205025  0.33599715     0.06000
C1428       C  0.55847930  0.08385323  0.29217859    -0.13700
Br1429     Br  0.59085153  0.15914296  0.23406402    -0.05800
Br1430     Br  0.49742473  0.03007685  0.11358316    -0.00200
Br1431     Br  0.46800577  0.09062712  0.33828059     0.00300
Br1432     Br  0.59294586  0.07837175  0.27067186    -0.04100
Br1433     Br  0.59627038  0.16592798  0.13013366     0.00400
Br1434     Br  0.49339516  0.02407228  0.21762652    -0.03400
Br1435     Br  0.48801082  0.10261675  0.23944501    -0.04300
Br1436     Br  0.58181229  0.07726121  0.37421539    -0.00300
C1437       C  0.54412013  0.05402722  0.85312775     0.01100
C1438       C  0.51532060  0.05300987  0.83841393     0.03900
C1439       C  0.50834475  0.05126078  0.79474807    -0.12100
C1440       C  0.52963664  0.05036400  0.76537766     0.23200
C1441       C  0.55665517  0.04863046  0.77956456    -0.12700
C1442       C  0.56385615  0.05012961  0.82299954     0.04700
C1443       C  0.52624047  0.05570882  0.71982364     0.27100
C1444       C  0.51214602  0.02964472  0.69081951    -0.13400
C1445       C  0.51093128  0.03562021  0.64738737     0.05200
C1446       C  0.52265269  0.06758412  0.63312690    -0.09300
C1447       C  0.53634235  0.09358490  0.66254067     0.06000
C1448       C  0.53860155  0.08765962  0.70546422    -0.13700
Br1449     Br  0.58470142  0.04568061  0.73864005    -0.05800
Br1450     Br  0.48549276  0.05564644  0.87644732    -0.00200
Br1451     Br  0.49188863  0.99996940  0.60789858     0.00300
Br1452     Br  0.55889607  0.12352378  0.74495106    -0.04100
Br1453     Br  0.60080857  0.04593434  0.83936836     0.00400
Br1454     Br  0.47030050  0.05172548  0.77430474    -0.03400
Br1455     Br  0.49381285  0.98584225  0.71100145    -0.04300
Br1456     Br  0.55262484  0.13786255  0.64456521    -0.00300
C1457       C  0.79293714  0.33694156  0.98373385     0.01100
C1458       C  0.75967033  0.32019976  0.99524982     0.03900
C1459       C  0.73838531  0.28859413  0.97973460    -0.12100
C1460       C  0.74938833  0.27360937  0.95161510     0.23200
C1461       C  0.78168854  0.29014945  0.93883682    -0.12700
C1462       C  0.80388257  0.32049636  0.95663966     0.04700
C1463       C  0.72817310  0.23886593  0.93996250     0.27100
C1464       C  0.73262051  0.21514159  0.96049511    -0.13400
C1465       C  0.71030689  0.18209011  0.95364067     0.05200
C1466       C  0.68151136  0.17273702  0.93058955    -0.09300
C1467       C  0.67934101  0.19608793  0.90565111     0.06000
C1468       C  0.70302008  0.22916902  0.90974730    -0.13700
Br1469     Br  0.79527421  0.27047778  0.89656428    -0.05800
Br1470     Br  0.74232119  0.33825015  0.03465396    -0.00200
Br1471     Br  0.71874596  0.14994723  0.97711172     0.00300
Br1472     Br  0.70024879  0.26131031  0.87602084    -0.04100
Br1473     Br  0.84920686  0.33630949  0.94497101     0.00400
Br1474     Br  0.69383214  0.26511385  0.99763395    -0.03400
Br1475     Br  0.76740568  0.22785114  0.00123665    -0.04300
Br1476     Br  0.64314132  0.18231427  0.86718355    -0.00300
loop_ 
_geom_bond_atom_site_label_1 
_geom_bond_atom_site_label_2 
_geom_bond_distance 
_geom_bond_site_symmetry_2 
_ccdc_geom_bond_type 
Fe1          O17   2.034       .  S
Fe1           O7   2.102       .  S
Fe1          O14   2.099       .  S
Fe1           O6   2.036   1_554  S
Fe1          O12   1.919   1_554  S
Fe2           O5   2.037   1_556  S
Fe2           O9   2.121   1_556  S
Fe2          O13   2.051       .  S
Fe2          O18   2.121       .  S
Fe2          O12   1.934       .  S
Fe3          O21   2.160       .  S
Fe3           O8   2.051       .  S
Fe3          O15   2.110   1_556  S
Fe3           O4   2.125       .  S
Fe3          O12   1.947       .  S
O4           C11   1.279       .  A
O5           C19   1.260   1_554  A
O6           C11   1.263       .  A
O7           C10   1.279       .  A
O8           C20   1.270       .  A
O9           C22   1.282       .  A
C10          O15   1.285       .  A
C10        C1357   1.523       .  S
C11        C1466   1.480       .  S
O13          C16   1.264       .  A
O14          C16   1.274   1_554  A
C16        C1386   1.490       .  S
O17          C22   1.267       .  A
O18          C20   1.282       .  A
C19          O21   1.284       .  A
C19        C1397   1.515   1_545  S
C20        C1437   1.506       .  S
C22        C1417   1.493       .  S
Fe23         O39   2.099       .  S
Fe23         O29   2.014       .  S
Fe23         O36   2.024       .  S
Fe23         O28   2.128       .  S
Fe23         O34   1.904       .  S
Fe24         O27   2.145       .  S
Fe24         O31   2.031       .  S
Fe24         O35   2.133       .  S
Fe24         O40   2.031       .  S
Fe24         O34   1.927       .  S
Fe25         O43   2.024       .  S
Fe25         O30   2.183       .  S
Fe25         O37   2.114       .  S
Fe25         O26   2.107       .  S
Fe25         O34   1.930       .  S
O26          C33   1.286       .  A
O27          C41   1.284       .  A
O28          C33   1.281       .  A
O29          C32   1.250       .  A
O30          C42   1.293       .  A
O31          C44   1.261       .  A
C32          O37   1.277       .  A
C32        C1337   1.464       .  S
C33        C1277   1.517       .  S
O35          C38   1.286       .  A
O36          C38   1.266       .  A
C38        C1446   1.482       .  S
O39          C44   1.273       .  A
O40          C42   1.261       .  A
C41          O43   1.257       .  A
C41        C1426   1.499       .  S
C42        C1317   1.514   1_545  S
C44        C1306   1.479       .  S
Fe45         O61   2.033       .  S
Fe45         O51   2.115       .  S
Fe45         O58   2.106       .  S
Fe45         O50   2.024   1_554  S
Fe45         O56   1.921       .  S
Fe46         O49   2.026       .  S
Fe46         O53   2.110       .  S
Fe46         O57   2.038   1_554  S
Fe46         O62   2.131   1_554  S
Fe46         O56   1.928       .  S
Fe47         O65   2.189       .  S
Fe47         O52   2.035       .  S
Fe47         O59   2.088   1_556  S
Fe47         O48   2.137       .  S
Fe47         O56   1.954   1_556  S
O48          C55   1.279       .  A
O49          C63   1.251   1_554  A
O50          C55   1.256       .  A
O51          C54   1.280       .  A
O52          C64   1.267       .  A
O53          C66   1.279       .  A
C54          O59   1.284       .  A
C54        C1186   1.507       .  S
C55        C1377   1.482       .  S
O57          C60   1.264   1_556  A
O58          C60   1.277       .  A
C60        C1197   1.478   1_554  S
O61          C66   1.264       .  A
O62          C64   1.283       .  A
C63          O65   1.288       .  A
C63        C1217   1.538       .  S
C64        C1257   1.487       .  S
C66        C1246   1.477       .  S
Fe67         O83   2.082       .  S
Fe67         O73   2.014       .  S
Fe67         O80   2.018       .  S
Fe67         O72   2.071       .  S
Fe67         O78   1.923       .  S
Fe68         O71   2.117       .  S
Fe68         O75   2.030       .  S
Fe68         O79   2.120       .  S
Fe68         O84   2.013       .  S
Fe68         O78   1.921       .  S
Fe69         O87   2.035       .  S
Fe69         O74   2.187       .  S
Fe69         O81   2.131       .  S
Fe69         O70   2.114       .  S
Fe69         O78   1.936       .  S
O70          C77   1.285       .  A
O71          C85   1.280       .  A
O72          C77   1.270       .  A
O73          C76   1.266       .  A
O74          C86   1.292       .  A
O75          C88   1.257       .  A
C76          O81   1.284       .  A
C76        C1157   1.479       .  S
C77        C1117   1.512       .  S
O79          C82   1.283       .  A
O80          C82   1.266       .  A
C82        C1266   1.466       .  S
O83          C88   1.266       .  A
O84          C86   1.256       .  A
C85          O87   1.263       .  A
C85        C1237   1.496       .  S
C86        C1137   1.528       .  S
C88        C1346   1.471       .  S
Fe89        O105   2.104       .  S
Fe89         O95   2.011       .  S
Fe89        O102   2.031       .  S
Fe89         O94   2.102       .  S
Fe89        O100   1.916       .  S
Fe90         O93   2.135       .  S
Fe90         O97   2.036       .  S
Fe90        O101   2.104       .  S
Fe90        O106   2.010       .  S
Fe90        O100   1.929       .  S
Fe91        O109   2.030       .  S
Fe91         O96   2.174       .  S
Fe91        O103   2.122       .  S
Fe91         O92   2.093       .  S
Fe91        O100   1.942       .  S
O92          C99   1.283       .  A
O93         C107   1.283       .  A
O94          C99   1.279       .  A
O95          C98   1.261       .  A
O96         C108   1.284       .  A
O97         C110   1.264       .  A
C98         O103   1.278       .  A
C98        C1297   1.487       .  S
C99        C1046   1.516       .  S
O101        C104   1.278       .  A
O102        C104   1.266       .  A
C104       C1086   1.476       .  S
O105        C110   1.276       .  A
O106        C108   1.251       .  A
C107        O109   1.264       .  A
C107       C1097   1.502       .  S
C108       C1057   1.521       .  S
C110       C1166   1.484       .  S
Fe111       O127   2.054       .  S
Fe111       O117   2.095       .  S
Fe111       O124   2.103       .  S
Fe111       O116   2.021   1_554  S
Fe111       O122   1.921   1_554  S
Fe112       O115   2.019       .  S
Fe112       O119   2.092       .  S
Fe112       O123   2.028   1_554  S
Fe112       O128   2.129   1_554  S
Fe112       O122   1.925   1_554  S
Fe113       O131   2.183       .  S
Fe113       O118   2.038       .  S
Fe113       O125   2.101   1_556  S
Fe113       O114   2.135       .  S
Fe113       O122   1.967       .  S
O114        C121   1.280       .  A
O115        C129   1.243   1_554  A
O116        C121   1.262       .  A
O117        C120   1.279       .  A
O118        C130   1.270       .  A
O119        C132   1.274       .  A
C120        O125   1.286       .  A
C120       C1006   1.510       .  S
C121       C1206   1.490       .  S
O123        C126   1.258       .  A
O124        C126   1.274   1_554  A
C126       C1457   1.511       .  S
O127        C132   1.268       .  A
O128        C130   1.284       .  A
C129        O131   1.282       .  A
C129       C1017   1.527       .  S
C130       C1077   1.475       .  S
C132       C1106   1.486       .  S
Fe133       O149   2.031       .  S
Fe133       O139   2.122       .  S
Fe133       O146   2.100       .  S
Fe133       O138   2.014       .  S
Fe133       O144   1.911       .  S
Fe134       O137   2.030       .  S
Fe134       O141   2.112       .  S
Fe134       O145   2.028       .  S
Fe134       O150   2.143       .  S
Fe134       O144   1.922       .  S
Fe135       O153   2.198       .  S
Fe135       O140   2.025       .  S
Fe135       O147   2.097       .  S
Fe135       O136   2.142       .  S
Fe135       O144   1.961       .  S
O136        C143   1.279       .  A
O137        C151   1.251       .  A
O138        C143   1.248       .  A
O139        C142   1.279       .  A
O140        C152   1.265       .  A
O141        C154   1.279       .  A
C142        O147   1.284       .  A
C142       C1326   1.508       .  S
C143        C977   1.481       .  S
O145        C148   1.254       .  A
O146        C148   1.279       .  A
C148        C897   1.506       .  S
O149        C154   1.264       .  A
O150        C152   1.285       .  A
C151        O153   1.290       .  A
C151        C917   1.531       .  S
C152        C957   1.478       .  S
C154        C946   1.483       .  S
Fe155       O171   2.092       .  S
Fe155       O161   2.021       .  S
Fe155       O168   2.039       .  S
Fe155       O160   2.100       .  S
Fe155       O166   1.918       .  S
Fe156       O159   2.122       .  S
Fe156       O163   2.049       .  S
Fe156       O167   2.090       .  S
Fe156       O172   2.025       .  S
Fe156       O166   1.931       .  S
Fe157       O175   2.039       .  S
Fe157       O162   2.174       .  S
Fe157       O169   2.127       .  S
Fe157       O158   2.109       .  S
Fe157       O166   1.955       .  S
O158        C165   1.287       .  A
O159        C173   1.281       .  A
O160        C165   1.277       .  A
O161        C164   1.262       .  A
O162        C174   1.281       .  A
O163        C176   1.266       .  A
C164        O169   1.279       .  A
C164        C886   1.489       .  S
C165       C1226   1.525       .  S
O167        C170   1.274       .  A
O168        C170   1.267       .  A
C170        C966   1.476       .  S
O171        C176   1.274       .  A
O172        C174   1.247       .  A
C173        O175   1.271       .  A
C173        C937   1.492       .  S
C174        C866   1.528       .  S
C176        C837   1.483       .  S
Fe177       O193   2.100       .  S
Fe177       O183   2.023       .  S
Fe177       O190   2.032       .  S
Fe177       O182   2.104       .  S
Fe177       O188   1.923       .  S
Fe178       O181   2.138       .  S
Fe178       O185   2.047       .  S
Fe178       O189   2.114       .  S
Fe178       O194   2.028       .  S
Fe178       O188   1.929       .  S
Fe179       O197   2.047       .  S
Fe179       O184   2.170       .  S
Fe179       O191   2.131       .  S
Fe179       O180   2.110       .  S
Fe179       O188   1.961       .  S
O180        C187   1.288       .  A
O181        C195   1.286       .  A
O182        C187   1.281       .  A
O183        C186   1.259       .  A
O184        C196   1.280       .  A
O185        C198   1.265       .  A
C186        O191   1.279       .  A
C186        C826   1.478       .  S
C187       C1026   1.513       .  S
O189        C192   1.280       .  A
O190        C192   1.263       .  A
C192        C786   1.490       .  S
O193        C198   1.274       .  A
O194        C196   1.249       .  A
C195        O197   1.275       .  A
C195        C797   1.497       .  S
C196        C757   1.530       .  S
C198        C877   1.483       .  S
Fe199       O215   2.047       .  S
Fe199       O205   2.099       .  S
Fe199       O212   2.093       .  S
Fe199       O204   2.024       .  S
Fe199       O210   1.932       .  S
Fe200       O203   2.023       .  S
Fe200       O207   2.118       .  S
Fe200       O211   2.054       .  S
Fe200       O216   2.128       .  S
Fe200       O210   1.938       .  S
Fe201       O219   2.160       .  S
Fe201       O206   2.038       .  S
Fe201       O213   2.105       .  S
Fe201       O202   2.122       .  S
Fe201       O210   1.950       .  S
O202        C209   1.277       .  A
O203        C217   1.256       .  A
O204        C209   1.260       .  A
O205        C208   1.279       .  A
O206        C218   1.268       .  A
O207        C220   1.282       .  A
C208        O213   1.285       .  A
C208       C1146   1.523       .  S
C209        C906   1.480       .  S
O211        C214   1.265       .  A
O212        C214   1.272       .  A
C214        C717   1.496       .  S
O215        C220   1.267       .  A
O216        C218   1.283       .  A
C217        O219   1.282       .  A
C217        C746   1.526       .  S
C218        C777   1.505       .  S
C220        C806   1.486       .  S
Fe221       O237   2.038       .  S
Fe221       O227   2.084       .  S
Fe221       O234   2.094       .  S
Fe221       O226   2.029       .  S
Fe221       O232   1.918       .  S
Fe222       O225   2.022       .  S
Fe222       O229   2.106       .  S
Fe222       O233   2.028       .  S
Fe222       O238   2.129       .  S
Fe222       O232   1.916       .  S
Fe223       O241   2.184       .  S
Fe223       O228   2.042       .  S
Fe223       O235   2.122       .  S
Fe223       O224   2.128       .  S
Fe223       O232   1.958       .  S
O224        C231   1.281       .  A
O225        C239   1.245       .  A
O226        C231   1.266       .  A
O227        C230   1.274       .  A
O228        C240   1.271       .  A
O229        C242   1.278       .  A
C230        O235   1.289       .  A
C230       C1066   1.529       .  S
C231        C726   1.481       .  S
O233        C236   1.258       .  A
O234        C236   1.272       .  A
C236        C986   1.489       .  S
O237        C242   1.267       .  A
O238        C240   1.284       .  A
C239        O241   1.283       .  A
C239        C666   1.530       .  S
C240        C706   1.483       .  S
C242        C677   1.480       .  S
Fe243       O259   2.073       .  S
Fe243       O249   2.040       .  S
Fe243       O256   2.070       .  S
Fe243       O248   2.063       .  S
Fe243       O254   1.944       .  S
Fe244       O247   2.083       .  S
Fe244       O251   2.060       .  S
Fe244       O255   2.077       .  S
Fe244       O260   2.030       .  S
Fe244       O254   1.948       .  S
Fe245       O263   2.097       .  S
Fe245       O250   2.148       .  S
Fe245       O257   2.099       .  S
Fe245       O246   2.133       .  S
Fe245       O254   1.962       .  S
O246        C253   1.285       .  A
O247        C261   1.277       .  A
O248        C253   1.269       .  A
O249        C252   1.264       .  A
O250        C262   1.288       .  A
O251        C264   1.260       .  A
C252        O257   1.276       .  A
C252        C846   1.476       .  S
C253       C1406   1.519       .  S
O255        C258   1.274       .  A
O256        C258   1.270       .  A
C258        C697   1.475       .  S
O259        C264   1.266       .  A
O260        C262   1.260       .  A
C261        O263   1.278       .  A
C261        C686   1.492       .  S
C262        C637   1.506       .  S
C264        C817   1.490       .  S
Fe265       O281   2.031       .  S
Fe265       O271   2.107       .  S
Fe265       O278   2.115       .  S
Fe265       O270   2.027       .  S
Fe265       O276   1.921       .  S
Fe266       O269   2.026       .  S
Fe266       O273   2.120       .  S
Fe266       O277   2.020       .  S
Fe266       O282   2.122       .  S
Fe266       O276   1.924       .  S
Fe267       O285   2.184       .  S
Fe267       O272   2.042       .  S
Fe267       O279   2.087       .  S
Fe267       O268   2.129       .  S
Fe267       O276   1.937       .  S
O268        C275   1.280       .  A
O269        C283   1.259       .  A
O270        C275   1.262       .  A
O271        C274   1.279       .  A
O272        C284   1.263       .  A
O273        C286   1.280       .  A
C274        O279   1.282       .  A
C274        C766   1.508       .  S
C275        C617   1.477       .  S
O277        C280   1.258       .  A
O278        C280   1.276       .  A
C280        C557   1.489       .  S
O281        C286   1.265       .  A
O282        C284   1.280       .  A
C283        O285   1.293       .  A
C283       C1286   1.518       .  S
C284        C606   1.493       .  S
C286        C586   1.475       .  S
Fe287       O303   2.119       .  S
Fe287       O293   2.029       .  S
Fe287       O300   2.029       .  S
Fe287       O292   2.115   1_545  S
Fe287       O298   1.915       .  S
Fe288       O291   2.134       .  S
Fe288       O295   2.026       .  S
Fe288       O299   2.111       .  S
Fe288       O304   2.022       .  S
Fe288       O298   1.911       .  S
Fe289       O307   2.038       .  S
Fe289       O294   2.202       .  S
Fe289       O301   2.146   1_545  S
Fe289       O290   2.094       .  S
Fe289       O298   1.957       .  S
O290        C297   1.285   1_545  A
O291        C305   1.283       .  A
O292        C297   1.279       .  A
O293        C296   1.259   1_545  A
O294        C306   1.290       .  A
O295        C308   1.258       .  A
C296        O301   1.282       .  A
C296        C537   1.486       .  S
C297        C657   1.509       .  S
O299        C302   1.278       .  A
O300        C302   1.264       .  A
C302        C597   1.472       .  S
O303        C308   1.276       .  A
O304        C306   1.248       .  A
C305        O307   1.268       .  A
C305        C577   1.482       .  S
C306       C1177   1.530       .  S
C308        C526   1.507       .  S
Fe309       O325   2.049       .  S
Fe309       O315   2.095       .  S
Fe309       O322   2.086       .  S
Fe309       O314   2.032       .  S
Fe309       O320   1.926       .  S
Fe310       O313   2.018       .  S
Fe310       O317   2.111       .  S
Fe310       O321   2.046       .  S
Fe310       O326   2.127       .  S
Fe310       O320   1.933       .  S
Fe311       O329   2.163       .  S
Fe311       O316   2.057       .  S
Fe311       O323   2.123       .  S
Fe311       O312   2.115       .  S
Fe311       O320   1.953       .  S
O312        C319   1.277       .  A
O313        C327   1.251       .  A
O314        C319   1.262       .  A
O315        C318   1.277       .  A
O316        C328   1.272       .  A
O317        C330   1.280       .  A
C318        O323   1.289       .  A
C318        C646   1.528   1_655  S
C319        C566   1.472   1_655  S
O321        C324   1.264       .  A
O322        C324   1.271       .  A
C324        C457   1.482       .  S
O325        C330   1.269       .  A
O326        C328   1.283       .  A
C327        O329   1.281       .  A
C327       C1126   1.527       .  S
C328        C497   1.508       .  S
C330        C477   1.483       .  S
Fe331       O347   2.103       .  S
Fe331       O337   2.016       .  S
Fe331       O344   2.046       .  S
Fe331       O336   2.118       .  S
Fe331       O342   1.912       .  S
Fe332       O335   2.143       .  S
Fe332       O339   2.035       .  S
Fe332       O343   2.120       .  S
Fe332       O348   2.021       .  S
Fe332       O342   1.916       .  S
Fe333       O351   2.042       .  S
Fe333       O338   2.180       .  S
Fe333       O345   2.125       .  S
Fe333       O334   2.104       .  S
Fe333       O342   1.975       .  S
O334        C341   1.289       .  A
O335        C349   1.287       .  A
O336        C341   1.281       .  A
O337        C340   1.251       .  A
O338        C350   1.282       .  A
O339        C352   1.260       .  A
C340        O345   1.275       .  A
C340        C437   1.469       .  S
C341        C926   1.519       .  S
O343        C346   1.280       .  A
O344        C346   1.268       .  A
C346        C506   1.485       .  S
O347        C352   1.275       .  A
O348        C350   1.246       .  A
C349        O351   1.271       .  A
C349        C486   1.484       .  S
C350        C997   1.525       .  S
C352        C546   1.489       .  S
Fe353       O369   2.064       .  S
Fe353       O359   2.090   1_545  S
Fe353       O366   2.102       .  S
Fe353       O358   2.043   1_545  S
Fe353       O364   1.927       .  S
Fe354       O357   2.021       .  S
Fe354       O361   2.092       .  S
Fe354       O365   2.026       .  S
Fe354       O370   2.131       .  S
Fe354       O364   1.925       .  S
Fe355       O373   2.167       .  S
Fe355       O360   2.045       .  S
Fe355       O367   2.105       .  S
Fe355       O356   2.111   1_545  S
Fe355       O364   1.971       .  S
O356        C363   1.276       .  A
O357        C371   1.242       .  A
O358        C363   1.268       .  A
O359        C362   1.278       .  A
O360        C372   1.271       .  A
O361        C374   1.272       .  A
C362        O367   1.287   1_565  A
C362        C857   1.509       .  S
C363        C466   1.478       .  S
O365        C368   1.262       .  A
O366        C368   1.276       .  A
C368        C626   1.484       .  S
O369        C374   1.269       .  A
O370        C372   1.285       .  A
C371        O373   1.277       .  A
C371       C1037   1.521       .  S
C372        C417   1.485       .  S
C374        C397   1.481       .  S
Fe375       O391   2.083       .  S
Fe375       O381   2.042       .  S
Fe375       O388   2.048       .  S
Fe375       O380   2.090       .  S
Fe375       O386   1.923       .  S
Fe376       O379   2.135       .  S
Fe376       O383   2.029       .  S
Fe376       O387   2.110       .  S
Fe376       O392   2.019       .  S
Fe376       O386   1.929       .  S
Fe377       O395   2.041       .  S
Fe377       O382   2.171       .  S
Fe377       O389   2.130       .  S
Fe377       O378   2.103       .  S
Fe377       O386   1.952       .  S
O378        C385   1.285       .  A
O379        C393   1.287       .  A
O380        C385   1.278       .  A
O381        C384   1.262       .  A
O382        C394   1.281       .  A
O383        C396   1.261       .  A
C384        O389   1.279       .  A
C384        C517   1.482   1_655  S
C385        C737   1.513   1_655  S
O387        C390   1.280       .  A
O388        C390   1.267       .  A
C390        C426   1.482       .  S
O391        C396   1.272       .  A
O392        C394   1.249       .  A
C393        O395   1.271       .  A
C393        C406   1.495       .  S
C394       C1366   1.531       .  S
C396        C446   1.470       .  S
C397        C398   1.409       .  A
C397        C402   1.411       .  A
C398        C399   1.409       .  A
C398       Br410   1.929       .  S
C399        C400   1.411       .  A
C399       Br414   1.929       .  S
C400        C403   1.491       .  S
C400        C401   1.410       .  A
C401        C402   1.412       .  A
C401       Br409   1.929       .  S
C402       Br413   1.928       .  S
C403        C404   1.409       .  A
C403        C408   1.405       .  A
C404        C405   1.413   1_556  A
C404       Br415   1.930       .  S
C405        C406   1.417       .  A
C405       Br411   1.929       .  S
C406        C407   1.421   1_554  A
C407        C408   1.408       .  A
C407       Br416   1.934   1_556  S
C408       Br412   1.932       .  S
C417        C418   1.412       .  A
C417        C422   1.411       .  A
C418        C419   1.409       .  A
C418       Br430   1.926       .  S
C419        C420   1.408       .  A
C419       Br434   1.929       .  S
C420        C423   1.493       .  S
C420        C421   1.411       .  A
C421        C422   1.413       .  A
C421       Br429   1.929       .  S
C422       Br433   1.927       .  S
C423        C424   1.412       .  A
C423        C428   1.409       .  A
C424        C425   1.412       .  A
C424       Br435   1.928       .  S
C425        C426   1.409       .  A
C425       Br431   1.927       .  S
C426        C427   1.413       .  A
C427        C428   1.410       .  A
C427       Br436   1.931       .  S
C428       Br432   1.929       .  S
C437        C438   1.408       .  A
C437        C442   1.419       .  A
C438        C439   1.409       .  A
C438       Br450   1.927       .  S
C439        C440   1.409       .  A
C439       Br454   1.926       .  S
C440        C443   1.472       .  S
C440        C441   1.404       .  A
C441        C442   1.395       .  A
C441       Br449   1.941       .  S
C442       Br453   1.936       .  S
C443        C444   1.406       .  A
C443        C448   1.405       .  A
C444        C445   1.403   1_565  A
C444       Br455   1.931       .  S
C445        C446   1.411       .  A
C445       Br451   1.926       .  S
C446        C447   1.412   1_545  A
C447        C448   1.402       .  A
C447       Br456   1.933       .  S
C448       Br452   1.926       .  S
C457        C458   1.415       .  A
C457        C462   1.409       .  A
C458        C459   1.407       .  A
C458       Br470   1.927       .  S
C459        C460   1.405       .  A
C459       Br474   1.928       .  S
C460        C463   1.482       .  S
C460        C461   1.412       .  A
C461        C462   1.405       .  A
C461       Br469   1.933       .  S
C462       Br473   1.926       .  S
C463        C464   1.408       .  A
C463        C468   1.408       .  A
C464        C465   1.406       .  A
C464       Br475   1.927       .  S
C465        C466   1.409       .  A
C465       Br471   1.928       .  S
C466        C467   1.411       .  A
C467        C468   1.407       .  A
C467       Br476   1.921       .  S
C468       Br472   1.930       .  S
C477        C478   1.409       .  A
C477        C482   1.413       .  A
C478        C479   1.412       .  A
C478       Br490   1.923       .  S
C479        C480   1.413       .  A
C479       Br494   1.929       .  S
C480        C483   1.492       .  S
C480        C481   1.407       .  A
C481        C482   1.408       .  A
C481       Br489   1.929       .  S
C482       Br493   1.930       .  S
C483        C484   1.411       .  A
C483        C488   1.408       .  A
C484        C485   1.412   1_556  A
C484       Br495   1.929       .  S
C485        C486   1.410       .  A
C485       Br491   1.925       .  S
C486        C487   1.412       .  A
C487        C488   1.409   1_554  A
C487       Br496   1.924       .  S
C488       Br492   1.930       .  S
C497        C498   1.425       .  A
C497        C502   1.423       .  A
C498        C499   1.409       .  A
C498       Br510   1.936       .  S
C499        C500   1.405       .  A
C499       Br514   1.933       .  S
C500        C503   1.497       .  S
C500        C501   1.410       .  A
C501        C502   1.416       .  A
C501       Br509   1.930       .  S
C502       Br513   1.934       .  S
C503        C504   1.412       .  A
C503        C508   1.413       .  A
C504        C505   1.409       .  A
C504       Br515   1.931       .  S
C505        C506   1.410       .  A
C505       Br511   1.931       .  S
C506        C507   1.412       .  A
C507        C508   1.415       .  A
C507       Br516   1.927       .  S
C508       Br512   1.929       .  S
C517        C518   1.412       .  A
C517        C522   1.407       .  A
C518        C519   1.413       .  A
C518       Br530   1.926   1_455  S
C519        C520   1.410       .  A
C519       Br534   1.926       .  S
C520        C523   1.487       .  S
C520        C521   1.408       .  A
C521        C522   1.402       .  A
C521       Br529   1.935       .  S
C522       Br533   1.912       .  S
C523        C524   1.409       .  A
C523        C528   1.401       .  A
C524        C525   1.414       .  A
C524       Br535   1.933       .  S
C525        C526   1.423       .  A
C525       Br531   1.934       .  S
C526        C527   1.430       .  A
C527        C528   1.406       .  A
C527       Br536   1.939       .  S
C528       Br532   1.935       .  S
C537        C538   1.422       .  A
C537        C542   1.411       .  A
C538        C539   1.400       .  A
C538       Br550   1.934       .  S
C539        C540   1.403       .  A
C539       Br554   1.938       .  S
C540        C543   1.486       .  S
C540        C541   1.411       .  A
C541        C542   1.416       .  A
C541       Br549   1.924       .  S
C542       Br553   1.926       .  S
C543        C544   1.406       .  A
C543        C548   1.408       .  A
C544        C545   1.411   1_455  A
C544       Br555   1.926       .  S
C545        C546   1.420       .  A
C545       Br551   1.932       .  S
C546        C547   1.415       .  A
C547        C548   1.407   1_655  A
C547       Br556   1.929       .  S
C548       Br552   1.933       .  S
C557        C558   1.417       .  A
C557        C562   1.421   1_545  A
C558        C559   1.411   1_545  A
C558       Br570   1.932       .  S
C559        C560   1.411       .  A
C559       Br574   1.932       .  S
C560        C563   1.482       .  S
C560        C561   1.403       .  A
C561        C562   1.401       .  A
C561       Br569   1.935       .  S
C562       Br573   1.937   1_565  S
C563        C564   1.410       .  A
C563        C568   1.411       .  A
C564        C565   1.399       .  A
C564       Br575   1.932       .  S
C565        C566   1.404       .  A
C565       Br571   1.918       .  S
C566        C567   1.410       .  A
C567        C568   1.409       .  A
C567       Br576   1.927   1_455  S
C568       Br572   1.927       .  S
C577        C578   1.415       .  A
C577        C582   1.409       .  A
C578        C579   1.408   1_554  A
C578       Br590   1.931       .  S
C579        C580   1.406       .  A
C579       Br594   1.929       .  S
C580        C583   1.487       .  S
C580        C581   1.411       .  A
C581        C582   1.410   1_556  A
C581       Br589   1.930       .  S
C582       Br593   1.924       .  S
C583        C584   1.408       .  A
C583        C588   1.411       .  A
C584        C585   1.407       .  A
C584       Br595   1.929       .  S
C585        C586   1.410       .  A
C585       Br591   1.927       .  S
C586        C587   1.410       .  A
C587        C588   1.409       .  A
C587       Br596   1.930       .  S
C588       Br592   1.929       .  S
C597        C598   1.409       .  A
C597        C602   1.408       .  A
C598        C599   1.409       .  A
C598       Br610   1.928       .  S
C599        C600   1.410       .  A
C599       Br614   1.928       .  S
C600        C603   1.485       .  S
C600        C601   1.409       .  A
C601        C602   1.405       .  A
C601       Br609   1.930       .  S
C602       Br613   1.930       .  S
C603        C604   1.408       .  A
C603        C608   1.403       .  A
C604        C605   1.411       .  A
C604       Br615   1.931       .  S
C605        C606   1.416       .  A
C605       Br611   1.927       .  S
C606        C607   1.424       .  A
C607        C608   1.406       .  A
C607       Br616   1.938       .  S
C608       Br612   1.933       .  S
C617        C618   1.409       .  A
C617        C622   1.416       .  A
C618        C619   1.413       .  A
C618       Br630   1.927       .  S
C619        C620   1.411       .  A
C619       Br634   1.926       .  S
C620        C623   1.482       .  S
C620        C621   1.405       .  A
C621        C622   1.399       .  A
C621       Br629   1.938       .  S
C622       Br633   1.932       .  S
C623        C624   1.405       .  A
C623        C628   1.410   1_455  A
C624        C625   1.406   1_455  A
C624       Br635   1.931       .  S
C625        C626   1.419       .  A
C625       Br631   1.935       .  S
C626        C627   1.414       .  A
C627        C628   1.408       .  A
C627       Br636   1.930       .  S
C628       Br632   1.932   1_655  S
C637        C638   1.410       .  A
C637        C642   1.418       .  A
C638        C639   1.425       .  A
C638       Br650   1.925       .  S
C639        C640   1.419       .  A
C639       Br654   1.922       .  S
C640        C643   1.520       .  S
C640        C641   1.411       .  A
C641        C642   1.416       .  A
C641       Br649   1.929       .  S
C642       Br653   1.926       .  S
C643        C644   1.409       .  A
C643        C648   1.415       .  A
C644        C645   1.420       .  A
C644       Br655   1.931       .  S
C645        C646   1.428       .  A
C645       Br651   1.934       .  S
C646        C647   1.423       .  A
C647        C648   1.426       .  A
C647       Br656   1.928       .  S
C648       Br652   1.929       .  S
C657        C658   1.416       .  A
C657        C662   1.419       .  A
C658        C659   1.419       .  A
C658       Br670   1.929       .  S
C659        C660   1.414       .  A
C659       Br674   1.928       .  S
C660        C663   1.516       .  S
C660        C661   1.414       .  A
C661        C662   1.421       .  A
C661       Br669   1.930       .  S
C662       Br673   1.929       .  S
C663        C664   1.403       .  A
C663        C668   1.416       .  A
C664        C665   1.415       .  A
C664       Br675   1.939       .  S
C665        C666   1.437       .  A
C665       Br671   1.934       .  S
C666        C667   1.419       .  A
C667        C668   1.428       .  A
C667       Br676   1.926       .  S
C668       Br672   1.923       .  S
C677        C678   1.411       .  A
C677        C682   1.415       .  A
C678        C679   1.411       .  A
C678       Br690   1.930       .  S
C679        C680   1.411       .  A
C679       Br694   1.928       .  S
C680        C683   1.488       .  S
C680        C681   1.407       .  A
C681        C682   1.406       .  A
C681       Br689   1.930       .  S
C682       Br693   1.933       .  S
C683        C684   1.407       .  A
C683        C688   1.407       .  A
C684        C685   1.410       .  A
C684       Br695   1.931       .  S
C685        C686   1.414       .  A
C685       Br691   1.918       .  S
C686        C687   1.412       .  A
C687        C688   1.409       .  A
C687       Br696   1.918       .  S
C688       Br692   1.930       .  S
C697        C698   1.408   1_556  A
C697        C702   1.411   1_556  A
C698        C699   1.409       .  A
C698       Br710   1.930   1_554  S
C699        C700   1.412       .  A
C699       Br714   1.929       .  S
C700        C703   1.489       .  S
C700        C701   1.409       .  A
C701        C702   1.409       .  A
C701       Br709   1.929       .  S
C702       Br713   1.930   1_554  S
C703        C704   1.407       .  A
C703        C708   1.411       .  A
C704        C705   1.407       .  A
C704       Br715   1.930       .  S
C705        C706   1.412       .  A
C705       Br711   1.930       .  S
C706        C707   1.411       .  A
C707        C708   1.412       .  A
C707       Br716   1.927       .  S
C708       Br712   1.930       .  S
C717        C718   1.414       .  A
C717        C722   1.419       .  A
C718        C719   1.412       .  A
C718       Br730   1.928       .  S
C719        C720   1.412       .  A
C719       Br734   1.933       .  S
C720        C723   1.489       .  S
C720        C721   1.404       .  A
C721        C722   1.408       .  A
C721       Br729   1.931       .  S
C722       Br733   1.926       .  S
C723        C724   1.410       .  A
C723        C728   1.409       .  A
C724        C725   1.410       .  A
C724       Br735   1.928       .  S
C725        C726   1.412       .  A
C725       Br731   1.927       .  S
C726        C727   1.412       .  A
C727        C728   1.407       .  A
C727       Br736   1.931       .  S
C728       Br732   1.928       .  S
C737        C738   1.423       .  A
C737        C742   1.420       .  A
C738        C739   1.415       .  A
C738       Br750   1.935   1_455  S
C739        C740   1.413       .  A
C739       Br754   1.933       .  S
C740        C743   1.517       .  S
C740        C741   1.417       .  A
C741        C742   1.422       .  A
C741       Br749   1.929       .  S
C742       Br753   1.931       .  S
C743        C744   1.410       .  A
C743        C748   1.416       .  A
C744        C745   1.414       .  A
C744       Br755   1.934       .  S
C745        C746   1.426       .  A
C745       Br751   1.932       .  S
C746        C747   1.425       .  A
C747        C748   1.425       .  A
C747       Br756   1.927       .  S
C748       Br752   1.931       .  S
C757        C758   1.436       .  A
C757        C762   1.422       .  A
C758        C759   1.415       .  A
C758       Br770   1.936       .  S
C759        C760   1.405       .  A
C759       Br774   1.938       .  S
C760        C763   1.517       .  S
C760        C761   1.416       .  A
C761        C762   1.427       .  A
C761       Br769   1.929       .  S
C762       Br773   1.928       .  S
C763        C764   1.414       .  A
C763        C768   1.417       .  A
C764        C765   1.420       .  A
C764       Br775   1.931       .  S
C765        C766   1.420       .  A
C765       Br771   1.929       .  S
C766        C767   1.414       .  A
C767        C768   1.418       .  A
C767       Br776   1.930       .  S
C768       Br772   1.930       .  S
C777        C778   1.427       .  A
C777        C782   1.424       .  A
C778        C779   1.403       .  A
C778       Br790   1.940       .  S
C779        C780   1.401       .  A
C779       Br794   1.936       .  S
C780        C783   1.485       .  S
C780        C781   1.408       .  A
C781        C782   1.415       .  A
C781       Br789   1.930       .  S
C782       Br793   1.933       .  S
C783        C784   1.406       .  A
C783        C788   1.407       .  A
C784        C785   1.408       .  A
C784       Br795   1.932       .  S
C785        C786   1.421   1_554  A
C785       Br791   1.935   1_554  S
C786        C787   1.416   1_556  A
C787        C788   1.409       .  A
C787       Br796   1.928   1_554  S
C788       Br792   1.931       .  S
C797        C798   1.418       .  A
C797        C802   1.416       .  A
C798        C799   1.406       .  A
C798       Br810   1.933       .  S
C799        C800   1.406       .  A
C799       Br814   1.931       .  S
C800        C803   1.494       .  S
C800        C801   1.413       .  A
C801        C802   1.416       .  A
C801       Br809   1.927       .  S
C802       Br813   1.930       .  S
C803        C804   1.410       .  A
C803        C808   1.412       .  A
C804        C805   1.413       .  A
C804       Br815   1.929       .  S
C805        C806   1.414       .  A
C805       Br811   1.928       .  S
C806        C807   1.409       .  A
C807        C808   1.411       .  A
C807       Br816   1.925       .  S
C808       Br812   1.931       .  S
C817        C818   1.424       .  A
C817        C822   1.418       .  A
C818        C819   1.403       .  A
C818       Br830   1.934       .  S
C819        C820   1.402       .  A
C819       Br834   1.936       .  S
C820        C823   1.483       .  S
C820        C821   1.410       .  A
C821        C822   1.411       .  A
C821       Br829   1.932       .  S
C822       Br833   1.933       .  S
C823        C824   1.409       .  A
C823        C828   1.407       .  A
C824        C825   1.404       .  A
C824       Br835   1.930       .  S
C825        C826   1.406       .  A
C825       Br831   1.914       .  S
C826        C827   1.411       .  A
C827        C828   1.407       .  A
C827       Br836   1.921       .  S
C828       Br832   1.929       .  S
C837        C838   1.411       .  A
C837        C842   1.416       .  A
C838        C839   1.407       .  A
C838       Br850   1.930       .  S
C839        C840   1.410       .  A
C839       Br854   1.931       .  S
C840        C843   1.485       .  S
C840        C841   1.406       .  A
C841        C842   1.410       .  A
C841       Br849   1.929       .  S
C842       Br853   1.929       .  S
C843        C844   1.405       .  A
C843        C848   1.410       .  A
C844        C845   1.402       .  A
C844       Br855   1.933       .  S
C845        C846   1.412       .  A
C845       Br851   1.923       .  S
C846        C847   1.410       .  A
C847        C848   1.412       .  A
C847       Br856   1.927       .  S
C848       Br852   1.924       .  S
C857        C858   1.419       .  A
C857        C862   1.420       .  A
C858        C859   1.422       .  A
C858       Br870   1.930       .  S
C859        C860   1.414       .  A
C859       Br874   1.926       .  S
C860        C863   1.511       .  S
C860        C861   1.410       .  A
C861        C862   1.414       .  A
C861       Br869   1.931       .  S
C862       Br873   1.933       .  S
C863        C864   1.403       .  A
C863        C868   1.414       .  A
C864        C865   1.414       .  A
C864       Br875   1.938       .  S
C865        C866   1.437       .  A
C865       Br871   1.935       .  S
C866        C867   1.419       .  A
C867        C868   1.425       .  A
C867       Br876   1.926       .  S
C868       Br872   1.926       .  S
C877        C878   1.409       .  A
C877        C882   1.413       .  A
C878        C879   1.412       .  A
C878       Br890   1.928       .  S
C879        C880   1.414       .  A
C879       Br894   1.931       .  S
C880        C883   1.490       .  S
C880        C881   1.407       .  A
C881        C882   1.407       .  A
C881       Br889   1.931       .  S
C882       Br893   1.925       .  S
C883        C884   1.409       .  A
C883        C888   1.409       .  A
C884        C885   1.405       .  A
C884       Br895   1.930       .  S
C885        C886   1.415       .  A
C885       Br891   1.934       .  S
C886        C887   1.415       .  A
C887        C888   1.412       .  A
C887       Br896   1.926       .  S
C888       Br892   1.928       .  S
C897        C898   1.437       .  A
C897        C902   1.421       .  A
C898        C899   1.408       .  A
C898       Br910   1.940       .  S
C899        C900   1.399       .  A
C899       Br914   1.936       .  S
C900        C903   1.483       .  S
C900        C901   1.406       .  A
C901        C902   1.410       .  A
C901       Br909   1.934       .  S
C902       Br913   1.933       .  S
C903        C904   1.407       .  A
C903        C908   1.408       .  A
C904        C905   1.407       .  A
C904       Br915   1.928       .  S
C905        C906   1.414       .  A
C905       Br911   1.930       .  S
C906        C907   1.411       .  A
C907        C908   1.406       .  A
C907       Br916   1.921       .  S
C908       Br912   1.931       .  S
C917        C918   1.435       .  A
C917        C922   1.419       .  A
C918        C919   1.416       .  A
C918       Br930   1.933       .  S
C919        C920   1.404       .  A
C919       Br934   1.937       .  S
C920        C923   1.522       .  S
C920        C921   1.418       .  A
C921        C922   1.430       .  A
C921       Br929   1.919       .  S
C922       Br933   1.927       .  S
C923        C924   1.412       .  A
C923        C928   1.416       .  A
C924        C925   1.420       .  A
C924       Br935   1.929       .  S
C925        C926   1.421       .  A
C925       Br931   1.930       .  S
C926        C927   1.422       .  A
C927        C928   1.426       .  A
C927       Br936   1.930       .  S
C928       Br932   1.927       .  S
C937        C938   1.419       .  A
C937        C942   1.420       .  A
C938        C939   1.412       .  A
C938       Br950   1.932       .  S
C939        C940   1.409       .  A
C939       Br954   1.929       .  S
C940        C943   1.482       .  S
C940        C941   1.403       .  A
C941        C942   1.401       .  A
C941       Br949   1.934       .  S
C942       Br953   1.937       .  S
C943        C944   1.406       .  A
C943        C948   1.409       .  A
C944        C945   1.404       .  A
C944       Br955   1.935       .  S
C945        C946   1.417       .  A
C945       Br951   1.933       .  S
C946        C947   1.412       .  A
C947        C948   1.410       .  A
C947       Br956   1.928       .  S
C948       Br952   1.929       .  S
C957        C958   1.411       .  A
C957        C962   1.413       .  A
C958        C959   1.402       .  A
C958       Br970   1.904       .  S
C959        C960   1.403       .  A
C959       Br974   1.936       .  S
C960        C963   1.477       .  S
C960        C961   1.408       .  A
C961        C962   1.408       .  A
C961       Br969   1.928       .  S
C962       Br973   1.931       .  S
C963        C964   1.410       .  A
C963        C968   1.405       .  A
C964        C965   1.407       .  A
C964       Br975   1.930       .  S
C965        C966   1.411   1_554  A
C965       Br971   1.929   1_554  S
C966        C967   1.414   1_556  A
C967        C968   1.403       .  A
C967       Br976   1.932   1_554  S
C968       Br972   1.932       .  S
C977        C978   1.410       .  A
C977        C982   1.423       .  A
C978        C979   1.413       .  A
C978       Br990   1.925       .  S
C979        C980   1.409       .  A
C979       Br994   1.926       .  S
C980        C983   1.479       .  S
C980        C981   1.400       .  A
C981        C982   1.398       .  A
C981       Br989   1.939       .  S
C982       Br993   1.930       .  S
C983        C984   1.403       .  A
C983        C988   1.408       .  A
C984        C985   1.407       .  A
C984       Br995   1.931       .  S
C985        C986   1.425       .  A
C985       Br991   1.937       .  S
C986        C987   1.417       .  A
C987        C988   1.405       .  A
C987       Br996   1.934       .  S
C988       Br992   1.934       .  S
C997        C998   1.436       .  A
C997       C1002   1.418       .  A
C998        C999   1.411       .  A
C998      Br1010   1.933       .  S
C999       C1000   1.402       .  A
C999      Br1014   1.940       .  S
C1000      C1003   1.509       .  S
C1000      C1001   1.415       .  A
C1001      C1002   1.426       .  A
C1001     Br1009   1.926       .  S
C1002     Br1013   1.927       .  S
C1003      C1004   1.414       .  A
C1003      C1008   1.410       .  A
C1004      C1005   1.421       .  A
C1004     Br1015   1.930       .  S
C1005      C1006   1.420       .  A
C1005     Br1011   1.930   1_554  S
C1006      C1007   1.420       .  A
C1007      C1008   1.414       .  A
C1007     Br1016   1.933       .  S
C1008     Br1012   1.931       .  S
C1017      C1018   1.437       .  A
C1017      C1022   1.417       .  A
C1018      C1019   1.416       .  A
C1018     Br1030   1.935   1_556  S
C1019      C1020   1.403   1_655  A
C1019     Br1034   1.938       .  S
C1020      C1023   1.515       .  S
C1020      C1021   1.415       .  A
C1021      C1022   1.425   1_455  A
C1021     Br1029   1.921       .  S
C1022     Br1033   1.928   1_655  S
C1023      C1024   1.413       .  A
C1023      C1028   1.414       .  A
C1024      C1025   1.419       .  A
C1024     Br1035   1.930   1_556  S
C1025      C1026   1.419       .  A
C1025     Br1031   1.930       .  S
C1026      C1027   1.417       .  A
C1027      C1028   1.422       .  A
C1027     Br1036   1.928       .  S
C1028     Br1032   1.929   1_455  S
C1037      C1038   1.436       .  A
C1037      C1042   1.418       .  A
C1038      C1039   1.412       .  A
C1038     Br1050   1.936       .  S
C1039      C1040   1.402       .  A
C1039     Br1054   1.939       .  S
C1040      C1043   1.507       .  S
C1040      C1041   1.413       .  A
C1041      C1042   1.422       .  A
C1041     Br1049   1.925       .  S
C1042     Br1053   1.928       .  S
C1043      C1044   1.408       .  A
C1043      C1048   1.411       .  A
C1044      C1045   1.415       .  A
C1044     Br1055   1.933       .  S
C1045      C1046   1.425       .  A
C1045     Br1051   1.934       .  S
C1046      C1047   1.424       .  A
C1047      C1048   1.421       .  A
C1047     Br1056   1.932       .  S
C1048     Br1052   1.931       .  S
C1057      C1058   1.422       .  A
C1057      C1062   1.426       .  A
C1058      C1059   1.424   1_655  A
C1058     Br1070   1.925       .  S
C1059      C1060   1.414       .  A
C1059     Br1074   1.929       .  S
C1060      C1063   1.515       .  S
C1060      C1061   1.410       .  A
C1061      C1062   1.415   1_455  A
C1061     Br1069   1.932       .  S
C1062     Br1073   1.937       .  S
C1063      C1064   1.407       .  A
C1063      C1068   1.414       .  A
C1064      C1065   1.415       .  A
C1064     Br1075   1.936       .  S
C1065      C1066   1.434       .  A
C1065     Br1071   1.940       .  S
C1066      C1067   1.423       .  A
C1067      C1068   1.425       .  A
C1067     Br1076   1.928       .  S
C1068     Br1072   1.928   1_455  S
C1077      C1078   1.408       .  A
C1077      C1082   1.411       .  A
C1078      C1079   1.407       .  A
C1078     Br1090   1.924       .  S
C1079      C1080   1.409       .  A
C1079     Br1094   1.929       .  S
C1080      C1083   1.481       .  S
C1080      C1081   1.405       .  A
C1081      C1082   1.406       .  A
C1081     Br1089   1.931       .  S
C1082     Br1093   1.919       .  S
C1083      C1084   1.405       .  A
C1083      C1088   1.411       .  A
C1084      C1085   1.406       .  A
C1084     Br1095   1.930       .  S
C1085      C1086   1.415       .  A
C1085     Br1091   1.932       .  S
C1086      C1087   1.407       .  A
C1087      C1088   1.407       .  A
C1087     Br1096   1.926       .  S
C1088     Br1092   1.930       .  S
C1097      C1098   1.422       .  A
C1097      C1102   1.429       .  A
C1098      C1099   1.415       .  A
C1098     Br1110   1.931       .  S
C1099      C1100   1.408       .  A
C1099     Br1114   1.929       .  S
C1100      C1103   1.486       .  S
C1100      C1101   1.401       .  A
C1101      C1102   1.403       .  A
C1101     Br1109   1.937       .  S
C1102     Br1113   1.941       .  S
C1103      C1104   1.409       .  A
C1103      C1108   1.407       .  A
C1104      C1105   1.408       .  A
C1104     Br1115   1.931       .  S
C1105      C1106   1.413       .  A
C1105     Br1111   1.932       .  S
C1106      C1107   1.416       .  A
C1107      C1108   1.408       .  A
C1107     Br1116   1.927       .  S
C1108     Br1112   1.931       .  S
C1117      C1118   1.424       .  A
C1117      C1122   1.418       .  A
C1118      C1119   1.415       .  A
C1118     Br1130   1.936       .  S
C1119      C1120   1.410       .  A
C1119     Br1134   1.932       .  S
C1120      C1123   1.514       .  S
C1120      C1121   1.416       .  A
C1121      C1122   1.422       .  A
C1121     Br1129   1.927       .  S
C1122     Br1133   1.928       .  S
C1123      C1124   1.409       .  A
C1123      C1128   1.413       .  A
C1124      C1125   1.417       .  A
C1124     Br1135   1.934       .  S
C1125      C1126   1.430       .  A
C1125     Br1131   1.938       .  S
C1126      C1127   1.423       .  A
C1127      C1128   1.424       .  A
C1127     Br1136   1.926       .  S
C1128     Br1132   1.929       .  S
C1137      C1138   1.422       .  A
C1137      C1142   1.427       .  A
C1138      C1139   1.428       .  A
C1138     Br1150   1.924       .  S
C1139      C1140   1.417       .  A
C1139     Br1154   1.927       .  S
C1140      C1143   1.522       .  S
C1140      C1141   1.409       .  A
C1141      C1142   1.416       .  A
C1141     Br1149   1.934       .  S
C1142     Br1153   1.932       .  S
C1143      C1144   1.412       .  A
C1143      C1148   1.416       .  A
C1144      C1145   1.416       .  A
C1144     Br1155   1.932       .  S
C1145      C1146   1.424       .  A
C1145     Br1151   1.936       .  S
C1146      C1147   1.424       .  A
C1147      C1148   1.426       .  A
C1147     Br1156   1.931       .  S
C1148     Br1152   1.929       .  S
C1157      C1158   1.411       .  A
C1157      C1162   1.409       .  A
C1158      C1159   1.403       .  A
C1158     Br1170   1.932       .  S
C1159      C1160   1.409       .  A
C1159     Br1174   1.932       .  S
C1160      C1163   1.487       .  S
C1160      C1161   1.413       .  A
C1161      C1162   1.411       .  A
C1161     Br1169   1.927       .  S
C1162     Br1173   1.926       .  S
C1163      C1164   1.413       .  A
C1163      C1168   1.407       .  A
C1164      C1165   1.410       .  A
C1164     Br1175   1.932       .  S
C1165      C1166   1.411       .  A
C1165     Br1171   1.928       .  S
C1166      C1167   1.416       .  A
C1167      C1168   1.406       .  A
C1167     Br1176   1.932       .  S
C1168     Br1172   1.932       .  S
C1177      C1178   1.418       .  A
C1177      C1182   1.437       .  A
C1178      C1179   1.429       .  A
C1178     Br1190   1.924       .  S
C1179      C1180   1.417       .  A
C1179     Br1194   1.926       .  S
C1180      C1183   1.515       .  S
C1180      C1181   1.402       .  A
C1181      C1182   1.413       .  A
C1181     Br1189   1.939       .  S
C1182     Br1193   1.932       .  S
C1183      C1184   1.416       .  A
C1183      C1188   1.413       .  A
C1184      C1185   1.419       .  A
C1184     Br1195   1.927       .  S
C1185      C1186   1.414       .  A
C1185     Br1191   1.929       .  S
C1186      C1187   1.419       .  A
C1187      C1188   1.420       .  A
C1187     Br1196   1.928   1_554  S
C1188     Br1192   1.930       .  S
C1197      C1198   1.406   1_556  A
C1197      C1202   1.412       .  A
C1198      C1199   1.408   1_554  A
C1198     Br1210   1.924       .  S
C1199      C1200   1.416       .  A
C1199     Br1214   1.933   1_556  S
C1200      C1203   1.490       .  S
C1200      C1201   1.409       .  A
C1201      C1202   1.407       .  A
C1201     Br1209   1.930       .  S
C1202     Br1213   1.931       .  S
C1203      C1204   1.411       .  A
C1203      C1208   1.410       .  A
C1204      C1205   1.412       .  A
C1204     Br1215   1.930       .  S
C1205      C1206   1.413       .  A
C1205     Br1211   1.920       .  S
C1206      C1207   1.413       .  A
C1207      C1208   1.404       .  A
C1207     Br1216   1.930       .  S
C1208     Br1212   1.931       .  S
C1217      C1218   1.425       .  A
C1217      C1222   1.442       .  A
C1218      C1219   1.427       .  A
C1218     Br1230   1.927       .  S
C1219      C1220   1.412       .  A
C1219     Br1234   1.927       .  S
C1220      C1223   1.516       .  S
C1220      C1221   1.404       .  A
C1221      C1222   1.418       .  A
C1221     Br1229   1.939   1_556  S
C1222     Br1233   1.940   1_556  S
C1223      C1224   1.412       .  A
C1223      C1228   1.409       .  A
C1224      C1225   1.422       .  A
C1224     Br1235   1.930       .  S
C1225      C1226   1.424       .  A
C1225     Br1231   1.930       .  S
C1226      C1227   1.431       .  A
C1227      C1228   1.419       .  A
C1227     Br1236   1.937       .  S
C1228     Br1232   1.932       .  S
C1237      C1238   1.419       .  A
C1237      C1242   1.427       .  A
C1238      C1239   1.410       .  A
C1238     Br1250   1.932       .  S
C1239      C1240   1.407       .  A
C1239     Br1254   1.931       .  S
C1240      C1243   1.485       .  S
C1240      C1241   1.403       .  A
C1241      C1242   1.408       .  A
C1241     Br1249   1.934       .  S
C1242     Br1253   1.938       .  S
C1243      C1244   1.409       .  A
C1243      C1248   1.408       .  A
C1244      C1245   1.406       .  A
C1244     Br1255   1.932       .  S
C1245      C1246   1.412       .  A
C1245     Br1251   1.928       .  S
C1246      C1247   1.410       .  A
C1247      C1248   1.408       .  A
C1247     Br1256   1.927       .  S
C1248     Br1252   1.928       .  S
C1257      C1258   1.420       .  A
C1257      C1262   1.414       .  A
C1258      C1259   1.404       .  A
C1258     Br1270   1.935       .  S
C1259      C1260   1.404       .  A
C1259     Br1274   1.934       .  S
C1260      C1263   1.485       .  S
C1260      C1261   1.411       .  A
C1261      C1262   1.411       .  A
C1261     Br1269   1.931       .  S
C1262     Br1273   1.929       .  S
C1263      C1264   1.414       .  A
C1263      C1268   1.409       .  A
C1264      C1265   1.407       .  A
C1264     Br1275   1.930       .  S
C1265      C1266   1.406       .  A
C1265     Br1271   1.931       .  S
C1266      C1267   1.409       .  A
C1267      C1268   1.405       .  A
C1267     Br1276   1.931       .  S
C1268     Br1272   1.929       .  S
C1277      C1278   1.413       .  A
C1277      C1282   1.419       .  A
C1278      C1279   1.427       .  A
C1278     Br1290   1.923       .  S
C1279      C1280   1.421       .  A
C1279     Br1294   1.925       .  S
C1280      C1283   1.520       .  S
C1280      C1281   1.410       .  A
C1281      C1282   1.412       .  A
C1281     Br1289   1.936       .  S
C1282     Br1293   1.914       .  S
C1283      C1284   1.415       .  A
C1283      C1288   1.415       .  A
C1284      C1285   1.416       .  A
C1284     Br1295   1.930       .  S
C1285      C1286   1.413       .  A
C1285     Br1291   1.913       .  S
C1286      C1287   1.422       .  A
C1287      C1288   1.423       .  A
C1287     Br1296   1.928       .  S
C1288     Br1292   1.929       .  S
C1297      C1298   1.417       .  A
C1297      C1302   1.418       .  A
C1298      C1299   1.400       .  A
C1298     Br1310   1.935       .  S
C1299      C1300   1.405       .  A
C1299     Br1314   1.934       .  S
C1300      C1303   1.480       .  S
C1300      C1301   1.407       .  A
C1301      C1302   1.410       .  A
C1301     Br1309   1.929       .  S
C1302     Br1313   1.927       .  S
C1303      C1304   1.412       .  A
C1303      C1308   1.403       .  A
C1304      C1305   1.410       .  A
C1304     Br1315   1.930       .  S
C1305      C1306   1.410       .  A
C1305     Br1311   1.927       .  S
C1306      C1307   1.416       .  A
C1307      C1308   1.401       .  A
C1307     Br1316   1.930       .  S
C1308     Br1312   1.934       .  S
C1317      C1318   1.417       .  A
C1317      C1322   1.410       .  A
C1318      C1319   1.423       .  A
C1318     Br1330   1.925       .  S
C1319      C1320   1.419       .  A
C1319     Br1334   1.929       .  S
C1320      C1323   1.524       .  S
C1320      C1321   1.420       .  A
C1321      C1322   1.416       .  A
C1321     Br1329   1.932       .  S
C1322     Br1333   1.917   1_565  S
C1323      C1324   1.424       .  A
C1323      C1328   1.413       .  A
C1324      C1325   1.426       .  A
C1324     Br1335   1.927       .  S
C1325      C1326   1.413       .  A
C1325     Br1331   1.925       .  S
C1326      C1327   1.414       .  A
C1327      C1328   1.410       .  A
C1327     Br1336   1.921       .  S
C1328     Br1332   1.931       .  S
C1337      C1338   1.417       .  A
C1337      C1342   1.407       .  A
C1338      C1339   1.392       .  A
C1338     Br1350   1.936       .  S
C1339      C1340   1.402       .  A
C1339     Br1354   1.938       .  S
C1340      C1343   1.467       .  S
C1340      C1341   1.409       .  A
C1341      C1342   1.408       .  A
C1341     Br1349   1.926       .  S
C1342     Br1353   1.927       .  S
C1343      C1344   1.403       .  A
C1343      C1348   1.408       .  A
C1344      C1345   1.401       .  A
C1344     Br1355   1.932       .  S
C1345      C1346   1.416       .  A
C1345     Br1351   1.934       .  S
C1346      C1347   1.413       .  A
C1347      C1348   1.402       .  A
C1347     Br1356   1.931       .  S
C1348     Br1352   1.935       .  S
C1357      C1358   1.424       .  A
C1357      C1362   1.423       .  A
C1358      C1359   1.418       .  A
C1358     Br1370   1.934       .  S
C1359      C1360   1.410       .  A
C1359     Br1374   1.930       .  S
C1360      C1363   1.518       .  S
C1360      C1361   1.414       .  A
C1361      C1362   1.425       .  A
C1361     Br1369   1.929       .  S
C1362     Br1373   1.929       .  S
C1363      C1364   1.414       .  A
C1363      C1368   1.408       .  A
C1364      C1365   1.424       .  A
C1364     Br1375   1.924       .  S
C1365      C1366   1.421       .  A
C1365     Br1371   1.925       .  S
C1366      C1367   1.432       .  A
C1367      C1368   1.418       .  A
C1367     Br1376   1.938       .  S
C1368     Br1372   1.933       .  S
C1377      C1378   1.419   1_556  A
C1377      C1382   1.410       .  A
C1378      C1379   1.400   1_554  A
C1378     Br1390   1.929       .  S
C1379      C1380   1.404       .  A
C1379     Br1394   1.939   1_556  S
C1380      C1383   1.487       .  S
C1380      C1381   1.412       .  A
C1381      C1382   1.415       .  A
C1381     Br1389   1.925       .  S
C1382     Br1393   1.927       .  S
C1383      C1384   1.409       .  A
C1383      C1388   1.408       .  A
C1384      C1385   1.408       .  A
C1384     Br1395   1.932       .  S
C1385      C1386   1.414       .  A
C1385     Br1391   1.928       .  S
C1386      C1387   1.419       .  A
C1387      C1388   1.411       .  A
C1387     Br1396   1.932       .  S
C1388     Br1392   1.932       .  S
C1397      C1398   1.416   1_556  A
C1397      C1402   1.418       .  A
C1398      C1399   1.417       .  A
C1398     Br1410   1.923       .  S
C1399      C1400   1.412   1_554  A
C1399     Br1414   1.928       .  S
C1400      C1403   1.513       .  S
C1400      C1401   1.413       .  A
C1401      C1402   1.420       .  A
C1401     Br1409   1.927       .  S
C1402     Br1413   1.921       .  S
C1403      C1404   1.408       .  A
C1403      C1408   1.414       .  A
C1404      C1405   1.417       .  A
C1404     Br1415   1.934       .  S
C1405      C1406   1.430       .  A
C1405     Br1411   1.937       .  S
C1406      C1407   1.419       .  A
C1407      C1408   1.423       .  A
C1407     Br1416   1.928       .  S
C1408     Br1412   1.928       .  S
C1417      C1418   1.415       .  A
C1417      C1422   1.420       .  A
C1418      C1419   1.410       .  A
C1418     Br1430   1.922       .  S
C1419      C1420   1.409       .  A
C1419     Br1434   1.932       .  S
C1420      C1423   1.487       .  S
C1420      C1421   1.406       .  A
C1421      C1422   1.408       .  A
C1421     Br1429   1.931       .  S
C1422     Br1433   1.935       .  S
C1423      C1424   1.401       .  A
C1423      C1428   1.410       .  A
C1424      C1425   1.403       .  A
C1424     Br1435   1.938       .  S
C1425      C1426   1.430       .  A
C1425     Br1431   1.943       .  S
C1426      C1427   1.417       .  A
C1427      C1428   1.415       .  A
C1427     Br1436   1.930       .  S
C1428     Br1432   1.928       .  S
C1437      C1438   1.424       .  A
C1437      C1442   1.429       .  A
C1438      C1439   1.413       .  A
C1438     Br1450   1.933       .  S
C1439      C1440   1.406       .  A
C1439     Br1454   1.932       .  S
C1440      C1443   1.487       .  S
C1440      C1441   1.403       .  A
C1441      C1442   1.408       .  A
C1441     Br1449   1.935       .  S
C1442     Br1453   1.939       .  S
C1443      C1444   1.411       .  A
C1443      C1448   1.407       .  A
C1444      C1445   1.413       .  A
C1444     Br1455   1.927   1_545  S
C1445      C1446   1.411       .  A
C1445     Br1451   1.926   1_545  S
C1446      C1447   1.417       .  A
C1447      C1448   1.404       .  A
C1447     Br1456   1.936       .  S
C1448     Br1452   1.934       .  S
C1457      C1458   1.427       .  A
C1457      C1462   1.435       .  A
C1458      C1459   1.413       .  A
C1458     Br1470   1.936   1_556  S
C1459      C1460   1.407       .  A
C1459     Br1474   1.934       .  S
C1460      C1463   1.488       .  S
C1460      C1461   1.400       .  A
C1461      C1462   1.407       .  A
C1461     Br1469   1.936       .  S
C1462     Br1473   1.943       .  S
C1463      C1464   1.410       .  A
C1463      C1468   1.409       .  A
C1464      C1465   1.405       .  A
C1464     Br1475   1.930   1_556  S
C1465      C1466   1.407       .  A
C1465     Br1471   1.919       .  S
C1466      C1467   1.410       .  A
C1467      C1468   1.410       .  A
C1467     Br1476   1.926       .  S
C1468     Br1472   1.926       .  S
