geometry optimzed in LAMMPS
_audit_creation_date              2020-12-01 
_audit_creation_method            'lammps2cif' 
_symmetry_space_group_name_H-M    'P1' 
_symmetry_Int_Tables_number       1 
_symmetry_cell_setting            triclinic 
loop_ 
_symmetry_equiv_pos_as_xyz 
  x,y,z 
_cell_length_a                    28.90411572 
_cell_length_b                    28.904114509929613 
_cell_length_c                    62.57266188801826 
_cell_angle_alpha                 90.04720122805739 
_cell_angle_beta                  89.94708619849237 
_cell_angle_gamma                 120.27086656022587 
loop_ 
_atom_site_label 
_atom_site_type_symbol 
_atom_site_fract_x 
_atom_site_fract_y 
_atom_site_fract_z 
_atom_site_charge 
O1          O  0.98260081  0.35315527  0.49411477    -0.78900
O2          O  0.73771096  0.26678790  0.50406656    -0.63600
O3          O  0.87876849  0.28754120  0.51002034    -1.10200
C4          C  0.84967014  0.22457840  0.43798116     1.08000
O5          O  0.70992170  0.18986732  0.48724396    -0.76800
O6          O  0.76960059  0.14956290  0.47366947    -0.64400
Ni7        Ni  0.93828127  0.35580541  0.51679763     1.34900
C8          C  0.80291752  0.14798761  0.48635177     0.86700
O9          O  0.81080980  0.30258496  0.53727962    -0.77300
O10         O  0.89949422  0.36295732  0.54029675    -0.87600
C11         C  0.70055462  0.22427171  0.49546405     0.86300
O12         O  0.92047868  0.39958490  0.49965665    -0.65800
O13         O  0.80224755  0.21648701  0.43939938    -0.85100
C14         C  0.87480023  0.39523273  0.49745571     0.87100
C15         C  0.85133050  0.34066853  0.54713507     1.08700
H16         H  0.82453849  0.29421511  0.46992519     0.40500
O17         O  0.81570910  0.26304076  0.47848675    -1.07700
O18         O  0.84581275  0.18939916  0.49258518    -0.64400
Ni19       Ni  0.88069412  0.26240640  0.48204053     1.26300
O20         O  0.83116750  0.35184525  0.50001122    -0.64600
O21         O  0.88215099  0.23833061  0.45358758    -0.76900
C22         C  0.98842530  0.31327482  0.48987239     0.86500
O23         O  0.94806767  0.26709509  0.48698981    -0.64100
Ni24       Ni  0.75799398  0.20513539  0.46387107     1.27400
Ni25       Ni  0.80956010  0.27998831  0.50783273     1.26100
H26         H  0.87725428  0.26227588  0.52050741     0.41100
O27         O  0.01440546  0.31989739  0.32421622    -0.78900
O28         O  0.92811721  0.07498034  0.31440279    -0.63600
O29         O  0.94879317  0.21598232  0.30838029    -1.10200
C30         C  0.88616018  0.18715030  0.38045523     1.08000
O31         O  0.85122569  0.04721084  0.33125293    -0.76800
O32         O  0.81092361  0.10690825  0.34480277    -0.64400
Ni33       Ni  0.01702631  0.27548456  0.30156568     1.34900
C34         C  0.80934805  0.14017838  0.33209074     0.86700
O35         O  0.96375652  0.14794128  0.28115267    -0.77300
O36         O  0.02414108  0.23661243  0.27809401    -0.87600
C37         C  0.88562338  0.03784155  0.32302586     0.86300
O38         O  0.06085718  0.25776573  0.31871920    -0.65800
O39         O  0.87796721  0.13968601  0.37905640    -0.85100
C40         C  0.05655260  0.21210729  0.32093020     0.87100
C41         C  0.00182916  0.18843018  0.27127950     1.08700
H42         H  0.95561593  0.16188853  0.34849848     0.40500
O43         O  0.92441607  0.15302868  0.33994952    -1.07700
O44         O  0.85074589  0.18305781  0.32584529    -0.64400
Ni45       Ni  0.92374821  0.21798929  0.33636357     1.26300
O46         O  0.01317648  0.16845464  0.31838552    -0.64600
O47         O  0.89978376  0.21954034  0.36482198    -0.76900
C48         C  0.97452097  0.32569577  0.32848678     0.86500
O49         O  0.92836021  0.28532202  0.33138625    -0.64100
Ni50       Ni  0.86653541  0.09535100  0.35460230     1.27400
Ni51       Ni  0.94127488  0.14679463  0.31060302     1.26100
H52         H  0.92349761  0.21442686  0.29790029     0.41100
O53         O  0.75418882  0.73717616  0.32365686    -0.78900
O54         O  0.99928865  0.89634931  0.31399305    -0.63600
O55         O  0.85790813  0.77554263  0.30787761    -1.10200
C56         C  0.88591931  0.74244217  0.38014965     1.08000
O57         O  0.02610527  0.84668511  0.33083041    -0.76800
O58         O  0.96605645  0.74674315  0.34479397    -0.64400
Ni59       Ni  0.79874421  0.78432556  0.30104379     1.34900
C60         C  0.93311235  0.71170960  0.33196519     0.86700
O61         O  0.92639003  0.85922677  0.28073473    -0.77300
O62         O  0.83785506  0.83070124  0.27764875    -0.87600
C63         C  0.03609604  0.89062408  0.32253234     0.86300
O64         O  0.81662948  0.84587783  0.31830969    -0.65800
O65         O  0.93342409  0.78203525  0.37872356    -0.85100
C66         C  0.86231460  0.88746095  0.32062893     0.87100
C67         C  0.88608167  0.85691142  0.27089157     1.08700
H68         H  0.91183711  0.83669306  0.34801786     0.40500
O69         O  0.92066030  0.81433147  0.33948411    -1.07700
O70         O  0.89047963  0.71016019  0.32549063    -0.64400
Ni71       Ni  0.85560280  0.74837019  0.33588801     1.26300
O72         O  0.90593262  0.88800194  0.31802386    -0.64600
O73         O  0.85369806  0.72302149  0.36445376    -0.76900
C74         C  0.74795165  0.69131252  0.32793154     0.86500
O75         O  0.78803193  0.68537246  0.33086467    -0.64100
Ni76       Ni  0.97799089  0.81443209  0.35425132     1.27400
Ni77       Ni  0.92722747  0.83759315  0.31015704     1.26100
H78         H  0.85936086  0.75171679  0.29739334     0.41100
O79         O  0.72406532  0.67600672  0.49499012    -0.78900
O80         O  0.80832086  0.51620867  0.50414452    -0.63600
O81         O  0.78925160  0.63743362  0.51048332    -1.10200
C82         C  0.85043386  0.67066528  0.43816648     1.08000
O83         O  0.88518446  0.56566596  0.48724926    -0.76800
O84         O  0.92611656  0.66574870  0.47369818    -0.64400
Ni85       Ni  0.72157501  0.62913402  0.51763743     1.34900
C86         C  0.92828697  0.70063317  0.48656645     0.86700
O87         O  0.77347515  0.55371151  0.53756172    -0.77300
O88         O  0.71448420  0.58315311  0.54108728    -0.87600
C89         C  0.85076249  0.52172571  0.49550393     0.86300
O90         O  0.67671922  0.56722232  0.50067009    -0.65800
O91         O  0.85847408  0.63136138  0.43956877    -0.85100
C92         C  0.68049187  0.52568207  0.49814856     0.87100
C93         C  0.73606837  0.55659219  0.54764787     1.08700
H94         H  0.78122954  0.57614832  0.47026393     0.40500
O95         O  0.81259288  0.59852040  0.47877058    -1.07700
O96         O  0.88727810  0.70256780  0.49282492    -0.64400
Ni97       Ni  0.81401823  0.66453935  0.48244525     1.26300
O98         O  0.72365363  0.52515522  0.50038089    -0.64600
O99         O  0.83754688  0.68987867  0.45387399    -0.76900
C100        C  0.76398437  0.72186091  0.49060364     0.86500
O101        O  0.80999750  0.72767906  0.48752349    -0.64100
Ni102      Ni  0.86990465  0.59843792  0.46395891     1.27400
Ni103      Ni  0.79585343  0.57526273  0.50810612     1.26100
H104        H  0.81493271  0.66121620  0.52090890     0.41100
O105        O  0.33736981  0.06132751  0.32350742    -0.78900
O106        O  0.17762761  0.14567112  0.31442113    -0.63600
O107        O  0.29881539  0.12655326  0.30803307    -1.10200
C108        C  0.33236716  0.18785748  0.38033891     1.08000
O109        O  0.22694965  0.22247221  0.33139110    -0.76800
O110        O  0.32716761  0.26341216  0.34482019    -0.64400
Ni111      Ni  0.29050030  0.05887638  0.30086558     1.34900
C112        C  0.36207392  0.26560658  0.33195348     0.86700
O113        O  0.21503830  0.11077060  0.28098355    -0.77300
O114        O  0.24451010  0.05181042  0.27742246    -0.87600
C115        C  0.18308648  0.18808385  0.32306870     0.86300
O116        O  0.22857852  0.01400437  0.31782767    -0.65800
O117        O  0.29300489  0.19581348  0.37897242    -0.85100
C118        C  0.18705286  0.01779861  0.32035919     0.87100
C119        C  0.21790575  0.07336853  0.27088384     1.08700
H120        H  0.23763046  0.11853735  0.34827559     0.40500
O121        O  0.25998270  0.14991234  0.33976964    -1.07700
O122        O  0.36401646  0.22460558  0.32568409    -0.64400
Ni123      Ni  0.32599940  0.15132976  0.33606096     1.26300
O124        O  0.18655805  0.06098587  0.31816808    -0.64600
O125        O  0.35146836  0.17489495  0.36461643    -0.76900
C126        C  0.38323664  0.10122822  0.32789282     0.86500
O127        O  0.38910034  0.14726703  0.33094879    -0.64100
Ni128      Ni  0.25991510  0.20718770  0.35461870     1.27400
Ni129      Ni  0.23666378  0.13317731  0.31043813     1.26100
H130        H  0.32257917  0.15223318  0.29760064     0.41100
O131        O  0.39979930  0.09271208  0.49490598    -0.78900
O132        O  0.55896856  0.33791602  0.50429510    -0.63600
O133        O  0.43820152  0.19657304  0.51055676    -1.10200
C134        C  0.40471290  0.22402884  0.43826053     1.08000
O135        O  0.50945561  0.36478310  0.48734539    -0.76800
O136        O  0.40933389  0.30454047  0.47357510    -0.64400
Ni137      Ni  0.44699260  0.13745565  0.51747594     1.34900
C138        C  0.37431960  0.27162940  0.48642403     0.86700
O139        O  0.52195221  0.26524425  0.53763408    -0.77300
O140        O  0.49338855  0.17672676  0.54084158    -0.87600
C141        C  0.55330697  0.37473222  0.49572391     0.86300
O142        O  0.50855257  0.15523617  0.50022167    -0.65800
O143        O  0.44428207  0.27156188  0.43962390    -0.85100
C144        C  0.55012088  0.20091408  0.49784327     0.87100
C145        C  0.51963126  0.22500157  0.54754001     1.08700
H146        H  0.49922538  0.25025072  0.47035608     0.40500
O147        O  0.47688401  0.25912707  0.47887764    -1.07700
O148        O  0.37274770  0.22899276  0.49290952    -0.64400
Ni149      Ni  0.41093461  0.19406446  0.48255080     1.26300
O150        O  0.55063462  0.24454313  0.50036546    -0.64600
O151        O  0.38544016  0.19192003  0.45399587    -0.76900
C152        C  0.35394168  0.08644758  0.49058795     0.86500
O153        O  0.34797321  0.12650888  0.48764659    -0.64100
Ni154      Ni  0.47692154  0.31634781  0.46402882     1.27400
Ni155      Ni  0.50023370  0.26588108  0.50820151     1.26100
H156        H  0.41440670  0.19810128  0.52103660     0.41100
O157        O  0.08729332  0.40404383  0.99017198    -0.78900
O158        O  0.33252237  0.56330362  0.98081557    -0.63600
O159        O  0.19118958  0.44252129  0.97453175    -1.10200
C160        C  0.21865746  0.40895049  0.04681750     1.08000
O161        O  0.35935585  0.51370852  0.99771592    -0.76800
O162        O  0.29914418  0.41358870  0.01150088    -0.64400
Ni163      Ni  0.13206941  0.45132309  0.96762272     1.34900
C164        C  0.26623527  0.37857335  0.99865578     0.86700
O165        O  0.25987282  0.52635030  0.94747428    -0.77300
O166        O  0.17136020  0.49780237  0.94427460    -0.87600
C167        C  0.36932689  0.55760445  0.98937421     0.86300
O168        O  0.14982218  0.51282611  0.98490714    -0.65800
O169        O  0.26618465  0.44852915  0.04545089    -0.85100
C170        C  0.19549460  0.55440075  0.98728532     0.87100
C171        C  0.21963820  0.52406253  0.93757732     1.08700
H172        H  0.24484718  0.50347341  0.01474427     0.40500
O173        O  0.25372800  0.48115178  0.00621272    -1.07700
O174        O  0.22360957  0.37702012  0.99216541    -0.64400
Ni175      Ni  0.18867517  0.41520553  0.00253281     1.26300
O176        O  0.23913052  0.55493242  0.98475451    -0.64600
O177        O  0.18653454  0.38968470  0.03108670    -0.76900
C178        C  0.08105267  0.35818775  0.99447816     0.86500
O179        O  0.12112647  0.35224522  0.99742916    -0.64100
Ni180      Ni  0.31095623  0.48117646  0.02104372     1.27400
Ni181      Ni  0.26049261  0.50456393  0.97689750     1.26100
H182        H  0.19272940  0.41874852  0.96404481     0.41100
O183        O  0.05653996  0.34184915  0.16164833    -0.78900
O184        O  0.14082302  0.18207134  0.17070048    -0.63600
O185        O  0.12178516  0.30329619  0.17709581    -1.10200
C186        C  0.18281961  0.33670352  0.10475639     1.08000
O187        O  0.21758006  0.23135179  0.15368987    -0.76800
O188        O  0.25851901  0.33155121  0.14024582    -0.64400
Ni189      Ni  0.05414753  0.29502497  0.18429881     1.34900
C190        C  0.26074465  0.36646057  0.15311711     0.86700
O191        O  0.10607073  0.21956301  0.20415245    -0.77300
O192        O  0.04715100  0.24907769  0.20774803    -0.87600
C193        C  0.18320451  0.18750638  0.16203107     0.86300
O194        O  0.00919406  0.23307657  0.16736974    -0.65800
O195        O  0.19081837  0.29736825  0.10612138    -0.85100
C196        C  0.01295896  0.19153755  0.16483015     0.87100
C197        C  0.06871283  0.22246455  0.21427167     1.08700
H198        H  0.11361456  0.24203443  0.13685805     0.40500
O199        O  0.14501744  0.26439471  0.14534677    -1.07700
O200        O  0.21976656  0.36843084  0.15939522    -0.64400
Ni201      Ni  0.14647010  0.33042648  0.14905518     1.26300
O202        O  0.05614209  0.19102317  0.16700129    -0.64600
O203        O  0.16992938  0.35584096  0.12048682    -0.76900
C204        C  0.09643377  0.38770094  0.15723668     0.86500
O205        O  0.14246094  0.39355052  0.15416725    -0.64100
Ni206      Ni  0.20225103  0.26430079  0.13046983     1.27400
Ni207      Ni  0.12837182  0.24112724  0.17468749     1.26100
H208        H  0.14750255  0.32706950  0.18751337     0.41100
O209        O  0.67062273  0.72825284  0.99011370    -0.78900
O210        O  0.51088434  0.81262435  0.98107745    -0.63600
O211        O  0.63205622  0.79350156  0.97466728    -1.10200
C212        C  0.66557538  0.85470960  0.04696766     1.08000
O213        O  0.56026421  0.88943710  0.99801860    -0.76800
O214        O  0.66044634  0.93035803  0.01143570    -0.64400
Ni215      Ni  0.62369837  0.72581241  0.96749875     1.34900
C216        C  0.69529140  0.93250709  0.99854788     0.86700
O217        O  0.54833297  0.77784230  0.94763358    -0.77300
O218        O  0.57766499  0.71876980  0.94407905    -0.87600
C219        C  0.51636349  0.85503059  0.98973354     0.86300
O220        O  0.56182526  0.68098090  0.98449340    -0.65800
O221        O  0.62628408  0.86277408  0.04559960    -0.85100
C222        C  0.52029563  0.68476954  0.98702069     0.87100
C223        C  0.55114326  0.74041334  0.93753809     1.08700
H224        H  0.57086559  0.78547174  0.01491858     0.40500
O225        O  0.59322943  0.81684374  0.00641264    -1.07700
O226        O  0.69724091  0.89149731  0.99230395    -0.64400
Ni227      Ni  0.65923485  0.81824291  0.00269153     1.26300
O228        O  0.51979255  0.72794575  0.98479848    -0.64600
O229        O  0.68468835  0.84176687  0.03124486    -0.76900
C230        C  0.71648420  0.76815467  0.99450306     0.86500
O231        O  0.72233745  0.81418508  0.99757138    -0.64100
Ni232      Ni  0.59320706  0.87415976  0.02125013     1.27400
Ni233      Ni  0.56992143  0.80015124  0.97708435     1.26100
H234        H  0.65582296  0.81917721  0.96423404     0.41100
O235        O  0.73231187  0.75858373  0.16150544    -0.78900
O236        O  0.89144934  0.00376951  0.17108086    -0.63600
O237        O  0.77067347  0.86237841  0.17722149    -1.10200
C238        C  0.73756128  0.89028099  0.10493737     1.08000
O239        O  0.84185217  0.03062044  0.15420620    -0.76800
O240        O  0.74187023  0.97048081  0.14027992    -0.64400
Ni241      Ni  0.77950316  0.80325158  0.18408616     1.34900
C242        C  0.70679971  0.93750601  0.15309325     0.86700
O243        O  0.85434281  0.93094547  0.20435051    -0.77300
O244        O  0.82592216  0.84244314  0.20745807    -0.87600
C245        C  0.88574517  0.04059327  0.16254587     0.86300
O246        O  0.84102865  0.82112559  0.16679983    -0.65800
O247        O  0.77712876  0.93780144  0.10635478    -0.85100
C248        C  0.88261479  0.86681282  0.16448322     0.87100
C249        C  0.85209900  0.89068058  0.21420116     1.08700
H250        H  0.83184116  0.91628707  0.13707268     0.40500
O251        O  0.80946232  0.92510377  0.14559902    -1.07700
O252        O  0.70524684  0.89487068  0.15957172    -0.64400
Ni253      Ni  0.74351493  0.86002065  0.14920511     1.26300
O254        O  0.88314426  0.91042837  0.16707899    -0.64600
O255        O  0.71817854  0.85806021  0.12063633    -0.76900
C256        C  0.68646912  0.75235203  0.15719000     0.86500
O257        O  0.68053421  0.79243078  0.15423680    -0.64100
Ni258      Ni  0.80955366  0.98241388  0.13081179     1.27400
Ni259      Ni  0.83270949  0.93171205  0.17492616     1.26100
H260        H  0.74683381  0.86383370  0.18769889     0.41100
O261        O  0.34777715  0.98684982  0.99105422    -0.78900
O262        O  0.26140450  0.74198097  0.98101586    -0.63600
O263        O  0.28221355  0.88307348  0.97510034    -1.10200
C264        C  0.21913909  0.85380738  0.04712783     1.08000
O265        O  0.18443953  0.71421821  0.99780013    -0.76800
O266        O  0.14413358  0.77385244  0.01141205    -0.64400
Ni267      Ni  0.35050207  0.94259996  0.96836157     1.34900
C268        C  0.14260364  0.80717986  0.99872116     0.86700
O269        O  0.29731572  0.81519000  0.94782259    -0.77300
O270        O  0.35772061  0.90388116  0.94485416    -0.87600
C271        C  0.21885889  0.70483158  0.98960921     0.86300
O272        O  0.39421210  0.92473457  0.98551596    -0.65800
O273        O  0.21101213  0.80637295  0.04569457    -0.85100
C274        C  0.38985678  0.87904966  0.98769742     0.87100
C275        C  0.33543153  0.85574361  0.93798882     1.08700
H276        H  0.28877855  0.82872986  0.01518318     0.40500
O277        O  0.25762660  0.81992942  0.00661272    -1.07700
O278        O  0.18403697  0.85007361  0.99250099    -0.64400
Ni279      Ni  0.25700785  0.88492350  0.00307509     1.26300
O280        O  0.34648002  0.83542526  0.98510862    -0.64600
O281        O  0.23287738  0.88630727  0.03152619    -0.76900
C282        C  0.30788227  0.99266865  0.99527291     0.86500
O283        O  0.26169903  0.95230485  0.99814241    -0.64100
Ni284      Ni  0.19967233  0.76218795  0.02120220     1.27400
Ni285      Ni  0.27464288  0.81385359  0.97726717     1.26100
H286        H  0.25698239  0.88159720  0.96460678     0.41100
O287        O  0.31502746  0.01887973  0.16084844    -0.78900
O288        O  0.07013218  0.93257942  0.17080747    -0.63600
O289        O  0.21117088  0.95328155  0.17674786    -1.10200
C290        C  0.18206106  0.89050903  0.10468618     1.08000
O291        O  0.04236982  0.85565731  0.15399633    -0.76800
O292        O  0.10200366  0.81535226  0.14037849    -0.64400
Ni293      Ni  0.27069388  0.02153055  0.18352788     1.34900
C294        C  0.13531664  0.81378866  0.15306696     0.86700
O295        O  0.14322330  0.96830437  0.20402135    -0.77300
O296        O  0.23190691  0.02868335  0.20702683    -0.87600
C297        C  0.03299282  0.89007773  0.16219128     0.86300
O298        O  0.25290626  0.06532209  0.16638338    -0.65800
O299        O  0.13461115  0.88234323  0.10611625    -0.85100
C300        C  0.20723652  0.06099719  0.16418870     0.87100
C301        C  0.18374933  0.00638794  0.21387262     1.08700
H302        H  0.15692761  0.96002085  0.13666265     0.40500
O303        O  0.14810417  0.92883961  0.14521852    -1.07700
O304        O  0.17820302  0.85519788  0.15929801    -0.64400
Ni305      Ni  0.21308054  0.92819109  0.14875978     1.26300
O306        O  0.16359536  0.01762709  0.16676366    -0.64600
O307        O  0.21452041  0.90417494  0.12029652    -0.76900
C308        C  0.32081611  0.97899004  0.15657790     0.86500
O309        O  0.28043736  0.93282806  0.15369224    -0.64100
Ni310      Ni  0.09038031  0.87093540  0.13060341     1.27400
Ni311      Ni  0.14196850  0.94575183  0.17457005     1.26100
H312        H  0.20965511  0.92800178  0.18722807     0.41100
O313        O  0.37691821  0.89873079  0.32081861    -0.78900
O314        O  0.61504593  0.06017995  0.32084490    -0.63600
O315        O  0.48242713  0.93122762  0.31218896    -1.10200
C316        C  0.51707566  0.88865018  0.38079459     1.08000
O317        O  0.64882417  0.00829300  0.32798170    -0.76800
O318        O  0.58648802  0.89961791  0.33340476    -0.64400
Ni319      Ni  0.42509753  0.93114851  0.29742473     1.34900
C320        C  0.54080442  0.85805333  0.33105649     0.86700
O321        O  0.54940342  0.02265235  0.28725594    -0.77300
O322        O  0.46968894  0.96370878  0.27296639    -0.87600
C323        C  0.65510557  0.05418946  0.32374374     0.86300
O324        O  0.43696782  0.99876186  0.30695306    -0.65800
O325        O  0.56530873  0.91492696  0.37404787    -0.85100
C326        C  0.46992157  0.03377839  0.31978523     0.87100
C327        C  0.51718956  0.00331711  0.27155555     1.08700
H328        H  0.54369778  0.99375425  0.35429452     0.40500
O329        O  0.54517034  0.96995833  0.34380052    -1.07700
O330        O  0.49718349  0.85752754  0.33362268    -0.64400
Ni331      Ni  0.47586972  0.90790517  0.34151178     1.26300
O332        O  0.51258641  0.03535746  0.32623312    -0.64600
O333        O  0.47673649  0.88623207  0.37093257    -0.76900
C334        C  0.36697957  0.85482092  0.32913201     0.86500
O335        O  0.40381583  0.84913668  0.33766921    -0.64100
Ni336      Ni  0.60436258  0.96122667  0.35062871     1.27400
Ni337      Ni  0.54747957  0.99719757  0.31580422     1.26100
H338        H  0.49126395  0.90889200  0.30364462     0.41100
O339        O  0.51803462  0.18037547  0.16449545    -0.78900
O340        O  0.59328389  0.01836617  0.16420893    -0.63600
O341        O  0.59064034  0.14750604  0.17295601    -1.10200
C342        C  0.66719552  0.18950075  0.10407793     1.08000
O343        O  0.67921103  0.07002676  0.15671723    -0.76800
O344        O  0.72651608  0.17884124  0.15106902    -0.64400
Ni345      Ni  0.53333707  0.14758594  0.18777821     1.34900
C346        C  0.72273397  0.22038133  0.15357912     0.86700
O347        O  0.56571506  0.05615188  0.19786001    -0.77300
O348        O  0.54477595  0.11465495  0.21216852    -0.87600
C349        C  0.63929515  0.02418092  0.16112270     0.86300
O350        O  0.47712706  0.08026732  0.17804068    -0.65800
O351        O  0.68879850  0.16295962  0.11064192    -0.85100
C352        C  0.47494957  0.04535923  0.16518289     0.87100
C353        C  0.55280385  0.07534168  0.21356922     1.08700
H354        H  0.58831869  0.08481071  0.13081869     0.40500
O355        O  0.61399759  0.10860228  0.14124275    -1.07700
O356        O  0.67956532  0.22089158  0.15134073    -0.64400
Ni357      Ni  0.60737040  0.17076111  0.14361757     1.26300
O358        O  0.51596191  0.04343683  0.15891615    -0.64600
O359        O  0.62975071  0.19232662  0.11415929    -0.76900
C360        C  0.55244221  0.22429314  0.15621704     0.86500
O361        O  0.59487747  0.22979680  0.14757570    -0.64100
Ni362      Ni  0.68169409  0.11694228  0.13408486     1.27400
Ni363      Ni  0.58923748  0.08149520  0.16928500     1.26100
H364        H  0.62200707  0.16988592  0.18145957     0.41100
O365        O  0.17602205  0.52295521  0.32049353    -0.78900
O366        O  0.01394203  0.59818935  0.32082920    -0.63600
O367        O  0.14306224  0.59551841  0.31205795    -1.10200
C368        C  0.18514343  0.67226712  0.38092344     1.08000
O369        O  0.06567800  0.68414130  0.32824431    -0.76800
O370        O  0.17448403  0.73147644  0.33392525    -0.64400
Ni371      Ni  0.14313311  0.53821865  0.29723156     1.34900
C372        C  0.21600583  0.72766583  0.33140756     0.86700
O373        O  0.05161654  0.57050627  0.28717857    -0.77300
O374        O  0.11011750  0.54959898  0.27285044    -0.87600
C375        C  0.01980063  0.64422909  0.32387986     0.86300
O376        O  0.07584128  0.48201543  0.30700767    -0.65800
O377        O  0.15854290  0.69380430  0.37435614    -0.85100
C378        C  0.04094022  0.47984396  0.31987128     0.87100
C379        C  0.07076081  0.55756259  0.27146289     1.08700
H380        H  0.08045089  0.59330546  0.35420612     0.40500
O381        O  0.10422402  0.61895863  0.34376862    -1.07700
O382        O  0.21649331  0.68448345  0.33363177    -0.64400
Ni383      Ni  0.16637507  0.61232213  0.34139215     1.26300
O384        O  0.03902359  0.52086086  0.32613739    -0.64600
O385        O  0.18800930  0.63482992  0.37084671    -0.76900
C386        C  0.21991558  0.55736090  0.32879064     0.86500
O387        O  0.22539690  0.59979158  0.33743125    -0.64100
Ni388      Ni  0.11255476  0.68666408  0.35089856     1.27400
Ni389      Ni  0.07705145  0.59411779  0.31573979     1.26100
H390        H  0.16542049  0.62687467  0.30354375     0.41100
O391        O  0.89380555  0.38126905  0.16429501    -0.78900
O392        O  0.05532190  0.61945840  0.16418336    -0.63600
O393        O  0.92637944  0.48684177  0.17286901    -1.10200
C394        C  0.88375090  0.52140463  0.10423655     1.08000
O395        O  0.00347563  0.65327045  0.15700640    -0.76800
O396        O  0.89476021  0.59089405  0.15160691    -0.64400
Ni397      Ni  0.92630189  0.42953681  0.18766059     1.34900
C398        C  0.85319812  0.54521169  0.15397861     0.86700
O399        O  0.01782346  0.55387722  0.19778867    -0.77300
O400        O  0.95892373  0.47418021  0.21210425    -0.87600
C401        C  0.04934671  0.65952713  0.16128434     0.86300
O402        O  0.99389529  0.44137723  0.17811360    -0.65800
O403        O  0.91005166  0.56964634  0.11096915    -0.85100
C404        C  0.02893275  0.47433989  0.16528607     0.87100
C405        C  0.99852752  0.52168813  0.21350081     1.08700
H406        H  0.98888488  0.54805042  0.13074720     0.40500
O407        O  0.96509445  0.54954668  0.14123793    -1.07700
O408        O  0.85267485  0.50158564  0.15143593    -0.64400
Ni409      Ni  0.90303462  0.48024944  0.14354553     1.26300
O410        O  0.03051609  0.51700097  0.15882804    -0.64600
O411        O  0.88132337  0.48107723  0.11411854    -0.76900
C412        C  0.84992703  0.37134993  0.15595378     0.86500
O413        O  0.84426900  0.40819839  0.14740919    -0.64100
Ni414      Ni  0.95637075  0.60873507  0.13437978     1.27400
Ni415      Ni  0.99234544  0.55189791  0.16923790     1.26100
H416        H  0.90404902  0.49569215  0.18141078     0.41100
O417        O  0.55186243  0.69826316  0.32049713    -0.78900
O418        O  0.47462341  0.46013449  0.32038596    -0.63600
O419        O  0.47861806  0.59245116  0.31180278    -1.10200
C420        C  0.40134752  0.55724570  0.38048036     1.08000
O421        O  0.38860334  0.42557624  0.32761074    -0.76800
O422        O  0.34220377  0.48775580  0.33307826    -0.64400
Ni423      Ni  0.53650126  0.65011548  0.29714843     1.34900
C424        C  0.34650214  0.53340839  0.33085675     0.86700
O425        O  0.50316413  0.52589022  0.28693464    -0.77300
O426        O  0.52501550  0.60576431  0.27270291    -0.87600
C427        C  0.42847234  0.41976915  0.32331928     0.86300
O428        O  0.59210806  0.63853345  0.30692852    -0.65800
O429        O  0.37899850  0.50904084  0.37369008    -0.85100
C430        C  0.59369512  0.60526018  0.31963409     0.87100
C431        C  0.51679985  0.55829352  0.27130494     1.08700
H432        H  0.47960150  0.53112566  0.35386112     0.40500
O433        O  0.45428319  0.52955068  0.34338800    -1.07700
O434        O  0.38988656  0.57706764  0.33338147    -0.64400
Ni435      Ni  0.46181114  0.59874311  0.34114455     1.26300
O436        O  0.55229617  0.56239335  0.32589127    -0.64600
O437        O  0.43941603  0.59768939  0.37059167    -0.76900
C438        C  0.51747743  0.70766809  0.32870989     0.86500
O439        O  0.47496568  0.67054827  0.33732693    -0.64100
Ni440      Ni  0.38605458  0.47008033  0.35023825     1.27400
Ni441      Ni  0.47926247  0.52748068  0.31539889     1.26100
H442        H  0.44741312  0.58359615  0.30325797     0.41100
O443        O  0.69338036  0.55621487  0.16454431    -0.78900
O444        O  0.45525591  0.47899310  0.16471755    -0.63600
O445        O  0.58758233  0.48298943  0.17326297    -1.10200
C446        C  0.55221685  0.40565321  0.10459280     1.08000
O447        O  0.42072769  0.39296374  0.15753763    -0.76800
O448        O  0.48285776  0.34655657  0.15201686    -0.64400
Ni449      Ni  0.64526446  0.54086558  0.18790461     1.34900
C450        C  0.52851577  0.35086829  0.15422596     0.86700
O451        O  0.52107156  0.50759329  0.19814828    -0.77300
O452        O  0.60094731  0.52940367  0.21236053    -0.87600
C453        C  0.41489918  0.43282938  0.16180118     0.86300
O454        O  0.63367839  0.59647105  0.17812691    -0.65800
O455        O  0.50402607  0.38332847  0.11140101    -0.85100
C456        C  0.60040189  0.59806652  0.16542734     0.87100
C457        C  0.55350127  0.52125015  0.21376772     1.08700
H458        H  0.52618397  0.48393223  0.13122412     0.40500
O459        O  0.52462973  0.45862577  0.14170014    -1.07700
O460        O  0.57217005  0.39425119  0.15169221    -0.64400
Ni461      Ni  0.59382662  0.46615833  0.14391749     1.26300
O462        O  0.55752333  0.55667019  0.15917773    -0.64600
O463        O  0.59269555  0.44371240  0.11446912    -0.76900
C464        C  0.70277990  0.52183167  0.15632813     0.86500
O465        O  0.66565189  0.47932566  0.14771126    -0.64100
Ni466      Ni  0.46513774  0.39039584  0.13487701     1.27400
Ni467      Ni  0.52261105  0.48364206  0.16968721     1.26100
H468        H  0.57873249  0.45178768  0.18181010     0.41100
O469        O  0.18563212  0.51452945  0.49794808    -0.78900
O470        O  0.26082216  0.35246547  0.49762221    -0.63600
O471        O  0.25822686  0.48162483  0.50638705    -1.10200
C472        C  0.33460807  0.52347568  0.43749342     1.08000
O473        O  0.34674980  0.40417590  0.49016115    -0.76800
O474        O  0.39406779  0.51292651  0.48444750    -0.64400
Ni475      Ni  0.20093816  0.48171520  0.52121601     1.34900
C476        C  0.39029592  0.55446717  0.48696001     0.86700
O477        O  0.23327243  0.39023715  0.53127253    -0.77300
O478        O  0.21236783  0.44875269  0.54559202    -0.87600
C479        C  0.30684951  0.35831258  0.49454849     0.86300
O480        O  0.14471350  0.41442741  0.51146242    -0.65800
O481        O  0.35621786  0.49693063  0.44404560    -0.85100
C482        C  0.14253063  0.37954385  0.49858975     0.87100
C483        C  0.22037930  0.40943051  0.54698326     1.08700
H484        H  0.25583486  0.41890400  0.46424637     0.40500
O485        O  0.28152439  0.44269350  0.47466825    -1.07700
O486        O  0.34712446  0.55498273  0.48474399    -0.64400
Ni487      Ni  0.27490865  0.50485158  0.47704769     1.26300
O488        O  0.18352745  0.37758340  0.49233351    -0.64600
O489        O  0.29721500  0.52635706  0.44758812    -0.76900
C490        C  0.22003084  0.55842615  0.48965645     0.86500
O491        O  0.26244710  0.56390789  0.48100589    -0.64100
Ni492      Ni  0.34918860  0.45099140  0.46750151     1.27400
Ni493      Ni  0.25679205  0.41559722  0.50270613     1.26100
H494        H  0.28960780  0.50400349  0.51488400     0.41100
O495        O  0.04422968  0.23317198  0.65419431    -0.78900
O496        O  0.28239590  0.39446903  0.65430173    -0.63600
O497        O  0.14974386  0.26555843  0.64560798    -1.10200
C498        C  0.18395129  0.22279187  0.71421792     1.08000
O499        O  0.31624227  0.34269922  0.66159163    -0.76800
O500        O  0.25367745  0.23396674  0.66684275    -0.64400
Ni501      Ni  0.09246759  0.26551589  0.63081351     1.34900
C502        C  0.20800135  0.19238389  0.66449960     0.86700
O503        O  0.21685384  0.35688251  0.62067756    -0.77300
O504        O  0.13712906  0.29798985  0.60637217    -0.87600
C505        C  0.32247365  0.38854040  0.65726973     0.86300
O506        O  0.10437552  0.33317306  0.64030325    -0.65800
O507        O  0.23220928  0.24896996  0.70749463    -0.85100
C508        C  0.13732069  0.36820029  0.65313419     0.87100
C509        C  0.18466740  0.33753145  0.60496915     1.08700
H510        H  0.21088797  0.32809950  0.68773548     0.40500
O511        O  0.21237868  0.30428364  0.67725640    -1.07700
O512        O  0.16437380  0.19183800  0.66708568    -0.64400
Ni513      Ni  0.14305301  0.24224864  0.67492898     1.26300
O514        O  0.17994824  0.36974092  0.65961064    -0.64600
O515        O  0.14371941  0.22056397  0.70435047    -0.76900
C516        C  0.03422982  0.18923587  0.66249858     0.86500
O517        O  0.07101928  0.18350598  0.67104841    -0.64100
Ni518      Ni  0.27148557  0.29544528  0.68414543     1.27400
Ni519      Ni  0.21481802  0.33149575  0.64924370     1.26100
H520        H  0.15857551  0.24319453  0.63707982     0.41100
O521        O  0.36087290  0.89020702  0.49785228    -0.78900
O522        O  0.12275905  0.81308494  0.49811765    -0.63600
O523        O  0.25508413  0.81706409  0.50659806    -1.10200
C524        C  0.21935623  0.73941156  0.43793989     1.08000
O525        O  0.08818857  0.72701835  0.49099834    -0.76800
O526        O  0.15028205  0.68055209  0.48543991    -0.64400
Ni527      Ni  0.31280345  0.87493763  0.52122707     1.34900
C528        C  0.19595899  0.68489294  0.48763099     0.86700
O529        O  0.18867533  0.84180303  0.53151508    -0.77300
O530        O  0.26855254  0.86357851  0.54570621    -0.87600
C531        C  0.08238697  0.76691200  0.49524405     0.86300
O532        O  0.30122303  0.93053802  0.51143816    -0.65800
O533        O  0.17120668  0.71715010  0.44479312    -0.85100
C534        C  0.26791980  0.93213123  0.49875260     0.87100
C535        C  0.22113791  0.85551189  0.54712657     1.08700
H536        H  0.19351516  0.81785843  0.46458745     0.40500
O537        O  0.19200548  0.79259081  0.47507210    -1.07700
O538        O  0.23959418  0.72826837  0.48506322    -0.64400
Ni539      Ni  0.26120691  0.80012161  0.47724348     1.26300
O540        O  0.22502264  0.89073262  0.49251428    -0.64600
O541        O  0.25990429  0.77749518  0.44778841    -0.76900
C542        C  0.37022325  0.85580431  0.48961727     0.86500
O543        O  0.33306065  0.81331402  0.48099904    -0.64100
Ni544      Ni  0.13246862  0.72433506  0.46830449     1.27400
Ni545      Ni  0.19011362  0.81772958  0.50305673     1.26100
H546        H  0.24624283  0.78587931  0.51515445     0.41100
O547        O  0.21916317  0.03265940  0.65387393    -0.78900
O548        O  0.14203349  0.79455045  0.65370385    -0.63600
O549        O  0.14601355  0.92685437  0.64515307    -1.10200
C550        C  0.06839083  0.89131393  0.71380915     1.08000
O551        O  0.05596695  0.75996255  0.66083991    -0.76800
O552        O  0.00949375  0.82208449  0.66633580    -0.64400
Ni553      Ni  0.20392442  0.98454753  0.63051840     1.34900
C554        C  0.01381713  0.86775130  0.66412465     0.86700
O555        O  0.17071195  0.86037244  0.62027993    -0.77300
O556        O  0.19258021  0.94024832  0.60605660    -0.87600
C557        C  0.09586540  0.75417492  0.65658174     0.86300
O558        O  0.25951140  0.97298177  0.64033943    -0.65800
O559        O  0.04610754  0.84314700  0.70697822    -0.85100
C560        C  0.26107032  0.93968415  0.65304029     0.87100
C561        C  0.18441121  0.89279242  0.60465315     1.08700
H562        H  0.14681082  0.86538607  0.68719878     0.40500
O563        O  0.12154149  0.86384720  0.67670971    -1.07700
O564        O  0.05719357  0.91139574  0.66667964    -0.64400
Ni565      Ni  0.12906482  0.93303785  0.67449755     1.26300
O566        O  0.21965866  0.89679727  0.65927542    -0.64600
O567        O  0.10647529  0.93182796  0.70394617    -0.76900
C568        C  0.18474185  0.04201296  0.66208969     0.86500
O569        O  0.14223884  0.00486285  0.67070489    -0.64100
Ni570      Ni  0.05328714  0.80433059  0.68349747     1.27400
Ni571      Ni  0.14666885  0.86188776  0.64873277     1.26100
H572        H  0.11483590  0.91800612  0.63659148     0.41100
O573        O  0.56139914  0.71536440  0.49763202    -0.78900
O574        O  0.72275458  0.95360128  0.49747047    -0.63600
O575        O  0.59384020  0.82094361  0.50616285    -1.10200
C576        C  0.55115362  0.85510792  0.43751883     1.08000
O577        O  0.67101453  0.98746481  0.49013944    -0.76800
O578        O  0.56224568  0.92484861  0.48487716    -0.64400
Ni579      Ni  0.59377664  0.76368614  0.52098958     1.34900
C580        C  0.52066139  0.87916411  0.48721816     0.86700
O581        O  0.68514433  0.88810041  0.53110142    -0.77300
O582        O  0.62626921  0.80838953  0.54542209    -0.87600
C583        C  0.71683621  0.99368334  0.49449769     0.86300
O584        O  0.66142977  0.77557215  0.51150011    -0.65800
O585        O  0.57732211  0.90336893  0.44423665    -0.85100
C586        C  0.69649113  0.80852897  0.49867860     0.87100
C587        C  0.66580874  0.85593157  0.54681745     1.08700
H588        H  0.65644410  0.88207456  0.46403668     0.40500
O589        O  0.63260840  0.88356671  0.47450582    -1.07700
O590        O  0.52014156  0.83554449  0.48465115    -0.64400
Ni591      Ni  0.57057759  0.81423634  0.47683253     1.26300
O592        O  0.69804908  0.85115864  0.49219200    -0.64600
O593        O  0.54892912  0.81488722  0.44739914    -0.76900
C594        C  0.51752181  0.70539134  0.48927523     0.86500
O595        O  0.51184003  0.74219878  0.48071167    -0.64100
Ni596      Ni  0.62376840  0.94266336  0.46759020     1.27400
Ni597      Ni  0.65978019  0.88602692  0.50252848     1.26100
H598        H  0.57146051  0.82978112  0.51467815     0.41100
O599        O  0.84341527  0.85736460  0.65372034    -0.78900
O600        O  0.68126581  0.93257449  0.65414203    -0.63600
O601        O  0.81036946  0.92990209  0.64531649    -1.10200
C602        C  0.85244535  0.00649417  0.71418351     1.08000
O603        O  0.73303250  0.01852374  0.66154485    -0.76800
O604        O  0.84178730  0.06584199  0.66723469    -0.64400
Ni605      Ni  0.81040736  0.87258044  0.63049182     1.34900
C606        C  0.88330654  0.06204311  0.66470074     0.86700
O607        O  0.71886746  0.90490292  0.62048366    -0.77300
O608        O  0.77726718  0.88388040  0.60613971    -0.87600
C609        C  0.68715185  0.97862650  0.65718102     0.86300
O610        O  0.74319186  0.81639060  0.64032934    -0.65800
O611        O  0.82584754  0.02805654  0.70764215    -0.85100
C612        C  0.70831056  0.81423896  0.65319789     0.87100
C613        C  0.73794567  0.89189716  0.60476811     1.08700
H614        H  0.74780345  0.92764263  0.68748703     0.40500
O615        O  0.77155885  0.95330561  0.67704795    -1.07700
O616        O  0.88380557  0.01886020  0.66690052    -0.64400
Ni617      Ni  0.83370533  0.94667569  0.67464223     1.26300
O618        O  0.70634788  0.85525066  0.65943306    -0.64600
O619        O  0.85532690  0.96909690  0.70408935    -0.76900
C620        C  0.88729519  0.89178219  0.66201890     0.86500
O621        O  0.89275257  0.93419825  0.67066114    -0.64100
Ni622      Ni  0.77987263  0.02098771  0.68419697     1.27400
Ni623      Ni  0.74435729  0.92849785  0.64902964     1.26100
H624        H  0.83271946  0.96125975  0.63680122     0.41100
O625        O  0.71005253  0.56552381  0.98737810    -0.78900
O626        O  0.94827063  0.72703981  0.98756788    -0.63600
O627        O  0.81566215  0.59811075  0.97884588    -1.10200
C628        C  0.85003027  0.55535109  0.04748077     1.08000
O629        O  0.98210982  0.67522663  0.99477731    -0.76800
O630        O  0.91963670  0.56645262  0.00011390    -0.64400
Ni631      Ni  0.75839580  0.59805851  0.96403242     1.34900
C632        C  0.87395090  0.52488640  0.99774896     0.86700
O633        O  0.88276958  0.68957927  0.95394481    -0.77300
O634        O  0.80310363  0.63071686  0.93960329    -0.87600
C635        C  0.98834905  0.72109004  0.99048642     0.86300
O636        O  0.77021257  0.66563888  0.97358521    -0.65800
O637        O  0.89828460  0.58162120  0.04075575    -0.85100
C638        C  0.80315090  0.70066325  0.98642031     0.87100
C639        C  0.85061809  0.67031775  0.93822293     1.08700
H640        H  0.87679595  0.66057298  0.02098490     0.40500
O641        O  0.87830253  0.63678726  0.01049542    -1.07700
O642        O  0.83032880  0.52436976  0.00029518    -0.64400
Ni643      Ni  0.80899726  0.57474194  0.00816951     1.26300
O644        O  0.84579959  0.70223649  0.99288928    -0.64600
O645        O  0.80974456  0.55300151  0.03759741    -0.76900
C646        C  0.70011923  0.52165053  0.99573173     0.86500
O647        O  0.73695094  0.51599028  0.00428925    -0.64100
Ni648      Ni  0.93745952  0.62802003  0.01736933     1.27400
Ni649      Ni  0.88071846  0.66406882  0.98249500     1.26100
H650        H  0.82452696  0.57578346  0.97031027     0.41100
O651        O  0.85221113  0.84825905  0.83132728    -0.78900
O652        O  0.92731408  0.68603658  0.83092591    -0.63600
O653        O  0.92471293  0.81517622  0.83971768    -1.10200
C654        C  0.00133999  0.85719747  0.77082529     1.08000
O655        O  0.01326411  0.73776251  0.82350060    -0.76800
O656        O  0.06064058  0.84653324  0.81777695    -0.64400
Ni657      Ni  0.86743884  0.81526677  0.85456282     1.34900
C658        C  0.05685519  0.88806126  0.82031183     0.86700
O659        O  0.89968441  0.72368661  0.86458137    -0.77300
O660        O  0.87875043  0.78214373  0.87892719    -0.87600
C661        C  0.97335627  0.69189855  0.82788588     0.86300
O662        O  0.81120620  0.74803304  0.84476057    -0.65800
O663        O  0.02285048  0.83055453  0.77737181    -0.85100
C664        C  0.80900831  0.71310653  0.83190619     0.87100
C665        C  0.88669937  0.74277603  0.88030074     1.08700
H666        H  0.92240400  0.75255879  0.79756093     0.40500
O667        O  0.94808186  0.77631950  0.80799226    -1.07700
O668        O  0.01367750  0.88857277  0.81811948    -0.64400
Ni669      Ni  0.94149237  0.83849014  0.81038102     1.26300
O670        O  0.85000463  0.71114332  0.82564461    -0.64600
O671        O  0.96395624  0.86011250  0.78092304    -0.76900
C672        C  0.88662254  0.89211250  0.82300100     0.86500
O673        O  0.92902356  0.89754344  0.81435030    -0.64100
Ni674      Ni  0.01574903  0.78459347  0.80083463     1.27400
Ni675      Ni  0.92327357  0.74914836  0.83602327     1.26100
H676        H  0.95608345  0.83752176  0.84822505     0.41100
O677        O  0.88490157  0.36505271  0.98717091    -0.78900
O678        O  0.80767247  0.12693806  0.98687267    -0.63600
O679        O  0.81171632  0.25930063  0.97839320    -1.10200
C680        C  0.73411769  0.22361273  0.04704729     1.08000
O681        O  0.72161444  0.09239324  0.99400570    -0.76800
O682        O  0.67518692  0.15450289  0.99956332    -0.64400
Ni683      Ni  0.86963825  0.31703416  0.96378577     1.34900
C684        C  0.67952477  0.20017829  0.99737728     0.86700
O685        O  0.83642208  0.19288918  0.95347991    -0.77300
O686        O  0.85829251  0.27282018  0.93930655    -0.87600
C687        C  0.76149754  0.08657566  0.98976023     0.86300
O688        O  0.92520614  0.30541544  0.97357448    -0.65800
O689        O  0.71181554  0.17545619  0.04020243    -0.85100
C690        C  0.92676948  0.27208640  0.98625412     0.87100
C691        C  0.85018335  0.22539342  0.93787989     1.08700
H692        H  0.81248966  0.19771181  0.02040193     0.40500
O693        O  0.78722406  0.19620884  0.00991945    -1.07700
O694        O  0.72290763  0.24381368  0.99993694    -0.64400
Ni695      Ni  0.79477561  0.26541968  0.00774297     1.26300
O696        O  0.88535428  0.22917924  0.99247807    -0.64600
O697        O  0.77220099  0.26414233  0.03719351    -0.76900
C698        C  0.85049826  0.37442863  0.99538367     0.86500
O699        O  0.80797461  0.33727497  0.00398677    -0.64100
Ni700      Ni  0.71896353  0.13668800  0.01669663     1.27400
Ni701      Ni  0.81235212  0.19431268  0.98193562     1.26100
H702        H  0.78054271  0.25048594  0.96983458     0.41100
O703        O  0.02748705  0.22400896  0.83111335    -0.78900
O704        O  0.78940877  0.14680417  0.83128962    -0.63600
O705        O  0.92171912  0.15078512  0.83983409    -1.10200
C706        C  0.88638410  0.07340436  0.77117541     1.08000
O707        O  0.75481311  0.06076844  0.82408883    -0.76800
O708        O  0.81700451  0.01437636  0.81862788    -0.64400
Ni709      Ni  0.97939091  0.20866695  0.85448049     1.34900
C710        C  0.86266225  0.01867868  0.82083281     0.86700
O711        O  0.85520498  0.17536594  0.86471711    -0.77300
O712        O  0.93506703  0.19717883  0.87894279    -0.87600
C713        C  0.74903024  0.10064883  0.82838877     0.86300
O714        O  0.96779003  0.26426944  0.84470744    -0.65800
O715        O  0.83819900  0.05106383  0.77799225    -0.85100
C716        C  0.93451807  0.26585180  0.83200078     0.87100
C717        C  0.88759795  0.18897170  0.88034689     1.08700
H718        H  0.86031961  0.15171902  0.79778972     0.40500
O719        O  0.85876970  0.12641857  0.80826762    -1.07700
O720        O  0.90631462  0.06204687  0.81826960    -0.64400
Ni721      Ni  0.92796858  0.13395162  0.81048882     1.29900
O722        O  0.89166101  0.22445046  0.82574371    -0.64600
O723        O  0.92685267  0.11150244  0.78104135    -0.76900
C724        C  0.03689160  0.18960579  0.82292017     0.86500
O725        O  0.99978116  0.14711222  0.81429123    -0.64100
Ni726      Ni  0.79928551  0.05817435  0.80145287     1.27400
Ni727      Ni  0.85675273  0.15143380  0.83625475     1.26100
H728        H  0.91286970  0.11958536  0.84838221     0.41100
O729        O  0.50907134  0.18977998  0.98716475    -0.78900
O730        O  0.34712066  0.26508427  0.98749971    -0.63600
O731        O  0.47625478  0.26243861  0.97872313    -1.10200
C732        C  0.51824134  0.33884431  0.04759313     1.08000
O733        O  0.39879542  0.35100441  0.99499178    -0.76800
O734        O  0.50760169  0.39825430  0.00061169    -0.64400
Ni735      Ni  0.47632025  0.20514592  0.96389091     1.34900
C736        C  0.54914323  0.39447136  0.99811067     0.86700
O737        O  0.38490829  0.23755578  0.95384188    -0.77300
O738        O  0.44343420  0.21666840  0.93951423    -0.87600
C739        C  0.35294670  0.31109964  0.99058685     0.86300
O740        O  0.40898903  0.14893343  0.97362401    -0.65800
O741        O  0.49174793  0.36050469  0.04103617    -0.85100
C742        C  0.37413287  0.14676072  0.98651145     0.87100
C743        C  0.40413548  0.22471744  0.93812527     1.08700
H744        H  0.41355132  0.26006945  0.02087279     0.40500
O745        O  0.43734939  0.28575099  0.01044823    -1.07700
O746        O  0.54964684  0.35130117  0.00035675    -0.64400
Ni747      Ni  0.49948824  0.27909316  0.00805827     1.26300
O748        O  0.37221367  0.18776845  0.99278159    -0.64600
O749        O  0.52102164  0.30138118  0.03751303    -0.76900
C750        C  0.55299865  0.22416925  0.99543564     0.86500
O751        O  0.55851588  0.26659485  0.00408755    -0.64100
Ni752      Ni  0.44571932  0.35344942  0.01761007     1.27400
Ni753      Ni  0.41024836  0.26103861  0.98241076     1.26100
H754        H  0.49864241  0.29381890  0.97022559     0.41100
O755        O  0.22795059  0.04896842  0.83088267    -0.78900
O756        O  0.38928927  0.28711293  0.83083209    -0.63600
O757        O  0.26035852  0.15447365  0.83949879    -1.10200
C758        C  0.21767183  0.18889138  0.77090932     1.08000
O759        O  0.33749894  0.32095918  0.82359432    -0.76800
O760        O  0.22880993  0.25847675  0.81830866    -0.64400
Ni761      Ni  0.26028195  0.09715976  0.85427475     1.34900
C762        C  0.18722250  0.21280156  0.82063814     0.86700
O763        O  0.35168949  0.22150532  0.86443480    -0.77300
O764        O  0.29274717  0.14177105  0.87872458    -0.87600
C765        C  0.38334516  0.32718947  0.82789556     0.86300
O766        O  0.32794233  0.10907589  0.84478545    -0.65800
O767        O  0.24386702  0.23713192  0.77764773    -0.85100
C768        C  0.36298709  0.14203972  0.83196184     0.87100
C769        C  0.33231846  0.18928894  0.88013481     1.08700
H770        H  0.32292838  0.21570746  0.79738476     0.40500
O771        O  0.29911216  0.21717821  0.80786980    -1.07700
O772        O  0.18666721  0.16917369  0.81804222    -0.64400
Ni773      Ni  0.23706793  0.14785922  0.81017967     1.26300
O774        O  0.36453901  0.18467679  0.82549006    -0.64600
O775        O  0.21540286  0.14861924  0.78076250    -0.76900
C776        C  0.18403506  0.03899715  0.82256853     0.86500
O777        O  0.17831695  0.07581678  0.81403890    -0.64100
Ni778      Ni  0.29030382  0.27631770  0.80101376     1.27400
Ni779      Ni  0.32630883  0.21954091  0.83587623     1.26100
H780        H  0.23800000  0.16330041  0.84803392     0.41100
O781        O  0.68189803  0.65433450  0.65757710    -0.78900
O782        O  0.59553776  0.40937765  0.64779424    -0.63600
O783        O  0.61623092  0.55039028  0.64176663    -1.10200
C784        C  0.55353514  0.52153614  0.71383535     1.08000
O785        O  0.51864833  0.38162133  0.66463937    -0.76800
O786        O  0.47836520  0.44132454  0.67819091    -0.64400
Ni787      Ni  0.68446994  0.60987512  0.63493387     1.34900
C788        C  0.47677103  0.47461634  0.66549839     0.86700
O789        O  0.63114650  0.48230584  0.61454320    -0.77300
O790        O  0.69155770  0.57096271  0.61146786    -0.87600
C791        C  0.55303557  0.37224084  0.65641203     0.86300
O792        O  0.72829799  0.59216282  0.65208766    -0.65800
O793        O  0.54537927  0.47408774  0.71243635    -0.85100
C794        C  0.72398957  0.54650331  0.65429382     0.87100
C795        C  0.66922578  0.52276944  0.60466381     1.08700
H796        H  0.62305403  0.49629273  0.68188562     0.40500
O797        O  0.59185380  0.48744183  0.67333828    -1.07700
O798        O  0.51817013  0.51750532  0.65925135    -0.64400
Ni799      Ni  0.59120641  0.55241438  0.66975438     1.26300
O800        O  0.68060423  0.50285117  0.65176466    -0.64600
O801        O  0.56724781  0.55397028  0.69821377    -0.76900
C802        C  0.64202339  0.66013332  0.66186983     0.86500
O803        O  0.59586330  0.61976622  0.66478072    -0.64100
Ni804      Ni  0.53396963  0.42976287  0.68798703     1.27400
Ni805      Ni  0.60869702  0.48119331  0.64399276     1.26100
H806        H  0.59092649  0.54883331  0.63129092     0.41100
O807        O  0.64903527  0.68652839  0.82765601    -0.78900
O808        O  0.40407153  0.60020963  0.83735480    -0.63600
O809        O  0.54504024  0.62082843  0.84342348    -1.10200
C810        C  0.51636130  0.55833031  0.77133742     1.08000
O811        O  0.37633307  0.52333989  0.82050387    -0.76800
O812        O  0.43605181  0.48305914  0.80697129    -0.64400
Ni813      Ni  0.60451948  0.68902987  0.85029146     1.34900
C814        C  0.46933399  0.48145990  0.81966683     0.86700
O815        O  0.47688892  0.63568244  0.87062894    -0.77300
O816        O  0.56554590  0.69604387  0.87374950    -0.87600
C817        C  0.36695001  0.55773242  0.82872222     0.86300
O818        O  0.58688170  0.73293512  0.83315091    -0.65800
O819        O  0.46889111  0.55012127  0.77272839    -0.85100
C820        C  0.54123731  0.72864379  0.83091584     0.87100
C821        C  0.51733095  0.67371149  0.88053024     1.08700
H822        H  0.49103927  0.62776031  0.80329072     0.40500
O823        O  0.48217259  0.59654533  0.81183190    -1.07700
O824        O  0.51221426  0.52284730  0.82591631    -0.64400
Ni825      Ni  0.54713656  0.59588754  0.81543121     1.26300
O826        O  0.49756777  0.68526002  0.83342406    -0.64600
O827        O  0.54875733  0.57200504  0.78696808    -0.76900
C828        C  0.65483914  0.64666874  0.82334285     0.86500
O829        O  0.61447411  0.60051709  0.82041747    -0.64100
Ni830      Ni  0.42451741  0.53867906  0.79716817     1.27400
Ni831      Ni  0.47585899  0.61332309  0.84117743     1.26100
H832        H  0.54344225  0.59548782  0.85389249     0.41100
O833        O  0.39057483  0.00953269  0.82832427    -0.78900
O834        O  0.47488924  0.84976009  0.83748007    -0.63600
O835        O  0.45577430  0.97096091  0.84381250    -1.10200
C836        C  0.51708078  0.00431749  0.77149389     1.08000
O837        O  0.55172515  0.89913013  0.82054132    -0.76800
O838        O  0.59265607  0.99927864  0.80702108    -0.64400
Ni839      Ni  0.38807947  0.96263459  0.85096573     1.34900
C840        C  0.59485252  0.03420870  0.81987218     0.86700
O841        O  0.43995953  0.88720010  0.87089399    -0.77300
O842        O  0.38094832  0.91661349  0.87441306    -0.87600
C843        C  0.51732114  0.85523990  0.82884247     0.86300
O844        O  0.34325790  0.90073785  0.83398636    -0.65800
O845        O  0.52503752  0.96495808  0.77288754    -0.85100
C846        C  0.34703917  0.85919887  0.83147759     0.87100
C847        C  0.40251267  0.89003261  0.88097372     1.08700
H848        H  0.44778560  0.90970693  0.80359455     0.40500
O849        O  0.47915245  0.93207423  0.81210002    -1.07700
O850        O  0.55384622  0.03613927  0.82614571    -0.64400
Ni851      Ni  0.48056734  0.99809186  0.81577326     1.26300
O852        O  0.39020780  0.85868497  0.83370462    -0.64600
O853        O  0.50413641  0.02347768  0.78720349    -0.76900
C854        C  0.43048854  0.05538128  0.82392189     0.86500
O855        O  0.47651145  0.06121201  0.82085174    -0.64100
Ni856      Ni  0.53643794  0.93197629  0.79727175     1.27400
Ni857      Ni  0.46239335  0.90879808  0.84143733     1.26100
H858        H  0.48144786  0.99474350  0.85423998     0.41100
O859        O  0.42158886  0.07155680  0.65702690    -0.78900
O860        O  0.66667459  0.23076164  0.64744918    -0.63600
O861        O  0.52533034  0.10995088  0.64126807    -1.10200
C862        C  0.55310373  0.07651211  0.71353169     1.08000
O863        O  0.69357259  0.18120634  0.66433815    -0.76800
O864        O  0.63345468  0.08112513  0.67815529    -0.64400
Ni865      Ni  0.46615772  0.11869472  0.63441075     1.34900
C866        C  0.60051671  0.04611865  0.66531489     0.86700
O867        O  0.59384166  0.19370993  0.61415732    -0.77300
O868        O  0.50528682  0.16505097  0.61101204    -0.87600
C869        C  0.70350606  0.22509437  0.65600166     0.86300
O870        O  0.48399106  0.18027115  0.65165342    -0.65800
O871        O  0.60062089  0.11610177  0.71214016    -0.85100
C872        C  0.52967115  0.22183710  0.65401621     0.87100
C873        C  0.55353491  0.19132786  0.60428115     1.08700
H874        H  0.57914673  0.17098565  0.68144297     0.40500
O875        O  0.58800256  0.14865515  0.67290479    -1.07700
O876        O  0.55786186  0.04454173  0.65885732    -0.64400
Ni877      Ni  0.52295003  0.08269220  0.66926658     1.26300
O878        O  0.57329775  0.22236898  0.65145990    -0.64600
O879        O  0.52094101  0.05720795  0.69781550    -0.76900
C880        C  0.41532926  0.02568149  0.66129872     0.86500
O881        O  0.45539805  0.01971108  0.66420560    -0.64100
Ni882      Ni  0.64529064  0.14871678  0.68770113     1.27400
Ni883      Ni  0.59463048  0.17200069  0.64358168     1.26100
H884        H  0.52682735  0.08616175  0.63077738     0.41100
O885        O  0.06634209  0.42636243  0.82805855    -0.78900
O886        O  0.22551697  0.67142100  0.83774611    -0.63600
O887        O  0.10469593  0.53005214  0.84386177    -1.10200
C888        C  0.07146145  0.55811316  0.77160970     1.08000
O889        O  0.17592405  0.69832774  0.82090248    -0.76800
O890        O  0.07591529  0.63827813  0.80701208    -0.64400
Ni891      Ni  0.11344921  0.47086555  0.85068738     1.34900
C892        C  0.04087175  0.60528815  0.81982973     0.86700
O893        O  0.18841551  0.59848045  0.87100309    -0.77300
O894        O  0.15979031  0.50992426  0.87409633    -0.87600
C895        C  0.21983307  0.70826250  0.82921345     0.86300
O896        O  0.17502108  0.48875755  0.83343301    -0.65800
O897        O  0.11104304  0.60562655  0.77303032    -0.85100
C898        C  0.21659056  0.53444272  0.83109226     0.87100
C899        C  0.18604016  0.55814590  0.88085394     1.08700
H900        H  0.16581340  0.58402353  0.80371302     0.40500
O901        O  0.14346165  0.59284017  0.81225762    -1.07700
O902        O  0.03929997  0.56262598  0.82627700    -0.64400
Ni903      Ni  0.07750272  0.52777164  0.81585880     1.26300
O904        O  0.21713155  0.57806223  0.83368592    -0.64600
O905        O  0.05210704  0.52587828  0.78730496    -0.76900
C906        C  0.02047928  0.42011861  0.82378034     0.86500
O907        O  0.01451568  0.46019428  0.82088089    -0.64100
Ni908      Ni  0.14355284  0.65018526  0.79749790     1.27400
Ni909      Ni  0.16675163  0.59936486  0.84158188     1.26100
H910        H  0.08088175  0.53150673  0.85435203     0.41100
O911        O  0.00478487  0.39577724  0.65685368    -0.78900
O912        O  0.84505864  0.48011039  0.64760636    -0.63600
O913        O  0.96625709  0.46096613  0.64131700    -1.10200
C914        C  0.99950012  0.52234938  0.71361588     1.08000
O915        O  0.89450306  0.55699044  0.66448845    -0.76800
O916        O  0.99459104  0.59791600  0.67804890    -0.64400
Ni917      Ni  0.95792792  0.39325885  0.63419389     1.34900
C918        C  0.02950200  0.60006440  0.66519884     0.86700
O919        O  0.88253838  0.44513845  0.61421579    -0.77300
O920        O  0.91195574  0.38612124  0.61073130    -0.87600
C921        C  0.85056760  0.52256129  0.65623408     0.86300
O922        O  0.89599952  0.34846252  0.65116869    -0.65800
O923        O  0.96017127  0.53034857  0.71220085    -0.85100
C924        C  0.85446915  0.35226403  0.65367015     0.87100
C925        C  0.88539629  0.40769052  0.60415079     1.08700
H926        H  0.90496440  0.45305703  0.68152015     0.40500
O927        O  0.92734788  0.48440297  0.67300478    -1.07700
O928        O  0.03142185  0.55903906  0.65895112    -0.64400
Ni929      Ni  0.99335722  0.48579165  0.66935331     1.26300
O930        O  0.85397062  0.39543521  0.65142125    -0.64600
O931        O  0.01869597  0.50939704  0.69792067    -0.76900
C932        C  0.05064670  0.43569077  0.66123329     0.86500
O933        O  0.05648275  0.48171775  0.66429799    -0.64100
Ni934      Ni  0.92726178  0.54173737  0.68779390     1.27400
Ni935      Ni  0.90409930  0.46760368  0.64366868     1.26100
H936        H  0.99005389  0.48662200  0.63088530     0.41100
C937        C  0.04619282  0.54070657  0.75121194    -0.11300
C938        C  0.02459733  0.53003974  0.73402917    -0.12800
C939        C  0.80355394  0.30496514  0.65689366    -0.11300
C940        C  0.75788936  0.26845899  0.65635275    -0.12800
C941        C  0.52484042  0.02950525  0.75109135    -0.11300
C942        C  0.53560079  0.05117437  0.73391915    -0.12800
C943        C  0.29972193  0.80829215  0.82827713    -0.11300
C944        C  0.26320512  0.76263684  0.82884043    -0.12800
C945        C  0.26743280  0.53838561  0.82767727    -0.11300
C946        C  0.31288047  0.54724073  0.82819549    -0.12800
C947        C  0.52791276  0.81178018  0.82838559    -0.11300
C948        C  0.53724829  0.77556861  0.82774588    -0.12800
C949        C  0.53361584  0.27268847  0.65742024    -0.11300
C950        C  0.54250354  0.31815118  0.65691142    -0.12800
C951        C  0.77090036  0.54248041  0.65743618    -0.11300
C952        C  0.80709650  0.53312870  0.65674896    -0.12800
C953        C  0.54497398  0.53876415  0.73409441    -0.11300
C954        C  0.53368545  0.54990934  0.75107452    -0.12800
C955        C  0.42148703  0.10002885  0.82243832    -0.11300
C956        C  0.40128080  0.12758039  0.82468320    -0.12800
C957        C  0.45517038  0.42891830  0.82706345    -0.11300
C958        C  0.42788756  0.38104692  0.82940304    -0.12800
C959        C  0.35756732  0.20669318  0.90052737    -0.11300
C960        C  0.37911379  0.21723219  0.91771449    -0.12800
C961        C  0.94866761  0.31838683  0.82460071    -0.11300
C962        C  0.97594494  0.36625932  0.82226397    -0.12800
C963        C  0.09095284  0.20007518  0.82348632    -0.11300
C964        C  0.13638534  0.20888885  0.82403241    -0.12800
C965        C  0.69539323  0.09167102  0.82985473    -0.11300
C966        C  0.64764180  0.07194359  0.82744174    -0.12800
C967        C  0.85886848  0.20828914  0.91761470    -0.11300
C968        C  0.87025088  0.19728183  0.90062511    -0.12800
C969        C  0.59645298  0.21358796  0.99491225    -0.11300
C970        C  0.63263994  0.20422898  0.99422383    -0.12800
C971        C  0.70848294  0.65566706  0.82189159    -0.11300
C972        C  0.75622901  0.67540194  0.82432009    -0.12800
C973        C  0.86668111  0.97177973  0.82403582    -0.11300
C974        C  0.87603882  0.93558028  0.82342482    -0.12800
C975        C  0.10417692  0.93896209  0.82350503    -0.11300
C976        C  0.14068994  0.98461570  0.82294056    -0.12800
C977        C  0.98237580  0.64727175  0.82937638    -0.11300
C978        C  0.00258911  0.61973319  0.82712672    -0.12800
C979        C  0.64572425  0.47829249  0.99540322    -0.11300
C980        C  0.60005651  0.44178069  0.99488192    -0.12800
C981        C  0.86997955  0.47401208  0.99435843    -0.11300
C982        C  0.86104304  0.42852911  0.99487948    -0.12800
C983        C  0.86812347  0.69573426  0.91784516    -0.11300
C984        C  0.87889466  0.71749388  0.90068881    -0.12800
C985        C  0.89233666  0.05207558  0.75108551    -0.11300
C986        C  0.88012682  0.02797995  0.73420868    -0.12800
C987        C  0.65099626  0.71376834  0.66330012    -0.11300
C988        C  0.67066789  0.76149541  0.66083617    -0.12800
C989        C  0.64253527  0.98766738  0.65572296    -0.11300
C990        C  0.61500631  0.00788270  0.65799994    -0.12800
C991        C  0.71272248  0.88416556  0.58438149    -0.11300
C992        C  0.69107206  0.87344037  0.56721016    -0.12800
C993        C  0.04701069  0.89716995  0.73391507    -0.11300
C994        C  0.02288121  0.88489731  0.75079316    -0.12800
C995        C  0.31359530  0.95384333  0.66045691    -0.11300
C996        C  0.36146448  0.98114016  0.66280124    -0.12800
C997        C  0.08691134  0.70054953  0.65514740    -0.11300
C998        C  0.06721827  0.65281608  0.65759384    -0.12800
C999        C  0.96693108  0.87179777  0.66093355    -0.11300
C1000       C  0.93075579  0.88118932  0.66156787    -0.12800
C1001       C  0.46978824  0.87520646  0.49061157    -0.11300
C1002       C  0.42431769  0.86631584  0.49010552    -0.12800
C1003       C  0.20398837  0.86417173  0.56739618    -0.11300
C1004       C  0.19287766  0.87549993  0.58438126    -0.12800
C1005       C  0.18981807  0.18266748  0.75094914    -0.11300
C1006       C  0.17765315  0.19489564  0.73417480    -0.12800
C1007       C  0.12284725  0.40648058  0.66042142    -0.11300
C1008       C  0.09529939  0.42668671  0.66268822    -0.12800
C1009       C  0.20407617  0.14154128  0.66108403    -0.11300
C1010       C  0.19523470  0.09609224  0.66158543    -0.12800
C1011       C  0.97985687  0.14588136  0.66209105    -0.11300
C1012       C  0.93421095  0.10936003  0.66150870    -0.12800
C1013       C  0.37634037  0.43310244  0.65576813    -0.11300
C1014       C  0.42421565  0.46043035  0.65810289    -0.12800
C1015       C  0.20943747  0.60187266  0.49014186    -0.11300
C1016       C  0.20002622  0.63802538  0.49080576    -0.12800
C1017       C  0.47416906  0.65100612  0.48962565    -0.11300
C1018       C  0.43762572  0.60536218  0.49016631    -0.12800
C1019       C  0.21277666  0.38434147  0.56738894    -0.11300
C1020       C  0.20214109  0.36276994  0.58457411    -0.12800
C1021       C  0.55816275  0.38435413  0.08449817    -0.11300
C1022       C  0.54592600  0.36028697  0.06761737    -0.12800
C1023       C  0.38007086  0.56325977  0.40056828    -0.11300
C1024       C  0.35602724  0.55109804  0.41745532    -0.12800
C1025       C  0.53627442  0.52974168  0.23403680    -0.11300
C1026       C  0.52516311  0.54098292  0.25103214    -0.12800
C1027       C  0.84381537  0.52750034  0.06746072    -0.11300
C1028       C  0.85596776  0.51526353  0.08424698    -0.12800
C1029       C  0.80233715  0.54126006  0.15737211    -0.11300
C1030       C  0.75687130  0.53236441  0.15684708    -0.12800
C1031       C  0.22514691  0.71799698  0.41782747    -0.11300
C1032       C  0.21284604  0.69384021  0.40095453    -0.12800
C1033       C  0.02389197  0.53913777  0.23388854    -0.11300
C1034       C  0.04556847  0.54983599  0.25106015    -0.12800
C1035       C  0.26337706  0.54676382  0.32832974    -0.11300
C1036       C  0.29958362  0.53741639  0.32768693    -0.12800
C1037       C  0.68868399  0.21717989  0.08404379    -0.11300
C1038       C  0.71276971  0.22944909  0.06715945    -0.12800
C1039       C  0.80656154  0.31695780  0.15628532    -0.11300
C1040       C  0.77004622  0.27129095  0.15680875    -0.12800
C1041       C  0.53252910  0.30395998  0.15738378    -0.11300
C1042       C  0.54186574  0.26775498  0.15671431    -0.12800
C1043       C  0.51095395  0.86088283  0.40077711    -0.11300
C1044       C  0.52324986  0.84878969  0.41755665    -0.12800
C1045       C  0.31259905  0.81145603  0.32876188    -0.11300
C1046       C  0.26693008  0.77496351  0.32820069    -0.12800
C1047       C  0.52800051  0.76175100  0.32818541    -0.11300
C1048       C  0.53686088  0.80720188  0.32766136    -0.12800
C1049       C  0.53459092  0.02864134  0.25116409    -0.11300
C1050       C  0.54519998  0.05025380  0.23398277    -0.12800
C1051       C  0.12117568  0.76126144  0.16047326    -0.11300
C1052       C  0.09387984  0.71338871  0.16280513    -0.12800
C1053       C  0.42218238  0.00765164  0.15758892    -0.11300
C1054       C  0.37444675  0.98795077  0.15514310    -0.12800
C1055       C  0.35683304  0.84997180  0.91787518    -0.11300
C1056       C  0.38096624  0.86230404  0.90099902    -0.12800
C1057       C  0.04220790  0.76565727  0.98896889    -0.11300
C1058       C  0.09007923  0.79301962  0.99129988    -0.12800
C1059       C  0.31684339  0.04630283  0.99664803    -0.11300
C1060       C  0.33649919  0.09401477  0.99414760    -0.12800
C1061       C  0.21054164  0.87094958  0.06740434    -0.11300
C1062       C  0.19928969  0.88206387  0.08440141    -0.12800
C1063       C  0.66848535  0.95196036  0.16035481    -0.11300
C1064       C  0.64828335  0.97951937  0.16259622    -0.12800
C1065       C  0.93347686  0.87076012  0.16109965    -0.11300
C1066       C  0.97892465  0.87960726  0.16164280    -0.12800
C1067       C  0.61458982  0.65061624  0.15802509    -0.11300
C1068       C  0.64191336  0.69848882  0.15568498    -0.12800
C1069       C  0.51130436  0.69496611  0.90062144    -0.11300
C1070       C  0.52347803  0.71900073  0.91750910    -0.12800
C1071       C  0.75253351  0.03294206  0.98837769    -0.11300
C1072       C  0.73289021  0.98523431  0.99088499    -0.12800
C1073       C  0.43672025  0.87497686  0.99088404    -0.11300
C1074       C  0.47290097  0.86560412  0.99022512    -0.12800
C1075       C  0.76111824  0.75913270  0.99597098    -0.11300
C1076       C  0.78866020  0.73892098  0.99371357    -0.12800
C1077       C  0.69071570  0.86228936  0.06736123    -0.11300
C1078       C  0.71231776  0.87287667  0.08453977    -0.12800
C1079       C  0.36125105  0.42383406  0.16319074    -0.11300
C1080       C  0.31352265  0.40412050  0.16071691    -0.12800
C1081       C  0.19380750  0.14405581  0.16160109    -0.11300
C1082       C  0.20319078  0.10787636  0.16098480    -0.12800
C1083       C  0.92908842  0.09498518  0.16219715    -0.11300
C1084       C  0.96561708  0.14063709  0.16164560    -0.12800
C1085       C  0.08741060  0.43232598  0.15574514    -0.11300
C1086       C  0.06719858  0.45986726  0.15799173    -0.12800
C1087       C  0.21382228  0.56426053  0.90083524    -0.11300
C1088       C  0.22594578  0.55198266  0.91761465    -0.12800
C1089       C  0.30829715  0.32010813  0.98911983    -0.11300
C1090       C  0.28074369  0.34031330  0.99137347    -0.12800
C1091       C  0.20832677  0.65073420  0.99013468    -0.11300
C1092       C  0.19943057  0.60526451  0.99066773    -0.12800
C1093       C  0.42372495  0.60094567  0.98972065    -0.11300
C1094       C  0.46938941  0.63745748  0.99024910    -0.12800
C1095       C  0.02718780  0.31362057  0.99598559    -0.11300
C1096       C  0.97931316  0.28626073  0.99365832    -0.12800
C1097       C  0.19044846  0.36188601  0.08436155    -0.11300
C1098       C  0.20112472  0.38356757  0.06719340    -0.12800
C1099       C  0.54749235  0.23129269  0.56751514    -0.11300
C1100       C  0.55971592  0.21914177  0.58430093    -0.12800
C1101       C  0.33607830  0.28613894  0.49372132    -0.11300
C1102       C  0.31586752  0.31367555  0.49599737    -0.12800
C1103       C  0.30941187  0.03257257  0.48905489    -0.11300
C1104       C  0.28209380  0.98468841  0.49136404    -0.12800
C1105       C  0.19019320  0.05186442  0.25085804    -0.11300
C1106       C  0.17791065  0.02775306  0.23398036    -0.12800
C1107       C  0.39976736  0.31838444  0.32435604    -0.11300
C1108       C  0.41948712  0.36612376  0.32190393    -0.12800
C1109       C  0.42786840  0.09220493  0.32936427    -0.11300
C1110       C  0.45542761  0.07201591  0.32709888    -0.12800
C1111       C  0.35763038  0.19564415  0.40072375    -0.11300
C1112       C  0.37934928  0.20644887  0.41788404    -0.12800
C1113       C  0.71460651  0.52896418  0.56768704    -0.11300
C1114       C  0.69053784  0.51679570  0.58457188    -0.12800
C1115       C  0.02875848  0.75795587  0.49665593    -0.11300
C1116       C  0.98103701  0.73829202  0.49418614    -0.12800
C1117       C  0.63317271  0.47479178  0.49490583    -0.11300
C1118       C  0.59664706  0.42913209  0.49541113    -0.12800
C1119       C  0.75500046  0.76652233  0.48915235    -0.11300
C1120       C  0.73479188  0.79406704  0.49141172    -0.12800
C1121       C  0.89224207  0.88473902  0.25092479    -0.11300
C1122       C  0.87998481  0.89691516  0.23415758    -0.12800
C1123       C  0.94759462  0.67343580  0.32468115    -0.11300
C1124       C  0.97515550  0.65324280  0.32242205    -0.12800
C1125       C  0.64623212  0.61943643  0.32704159    -0.11300
C1126       C  0.69409431  0.64674657  0.32940418    -0.12800
C1127       C  0.86853449  0.71722961  0.40055542    -0.11300
C1128       C  0.85797718  0.69570010  0.41774991    -0.12800
C1129       C  0.09047440  0.93397998  0.32294206    -0.11300
C1130       C  0.13613389  0.97047992  0.32353585    -0.12800
C1131       C  0.04725553  0.19476765  0.23430110    -0.11300
C1132       C  0.02316297  0.18251496  0.25118168    -0.12800
C1133       C  0.75682978  0.12600179  0.32466392    -0.11300
C1134       C  0.70897363  0.09872553  0.32228430    -0.12800
C1135       C  0.98349614  0.37933407  0.32991396    -0.11300
C1136       C  0.00322357  0.42707504  0.32746814    -0.12800
C1137       C  0.86625752  0.93830903  0.32403881    -0.11300
C1138       C  0.87511744  0.98376175  0.32353108    -0.12800
C1139       C  0.10345421  0.20808213  0.32411807    -0.11300
C1140       C  0.13963961  0.19870228  0.32349777    -0.12800
C1141       C  0.85773361  0.38615556  0.58411737    -0.11300
C1142       C  0.84547769  0.36203916  0.56724015    -0.12800
C1143       C  0.78874750  0.09543091  0.49374266    -0.11300
C1144       C  0.76139503  0.04754535  0.49604504    -0.12800
C1145       C  0.60099016  0.20486014  0.49445881    -0.11300
C1146       C  0.64645737  0.21374527  0.49497098    -0.12800
C1147       C  0.87073106  0.44210390  0.49429213    -0.11300
C1148       C  0.86133912  0.47826859  0.49497879    -0.12800
C1149       C  0.04206370  0.32225231  0.48847786    -0.11300
C1150       C  0.08978055  0.34191334  0.49096146    -0.12800
C1151       C  0.86679480  0.21588294  0.41771859    -0.11300
C1152       C  0.87781864  0.20449632  0.40073129    -0.12800
loop_ 
_geom_bond_atom_site_label_1 
_geom_bond_atom_site_label_2 
_geom_bond_distance 
_geom_bond_site_symmetry_2 
_ccdc_geom_bond_type 
O1           Ni7   1.938       .  S
O1           C22   1.274       .  A
O2          Ni25   1.928       .  S
O2           C11   1.274       .  A
O3           Ni7   1.900       .  S
O3          Ni25   1.905       .  S
O3          Ni19   1.906       .  S
O3           H26   0.967       .  S
C4           O21   1.272       .  A
C4           O13   1.272       .  A
C4         C1151   1.428       .  S
O5          Ni24   1.909       .  S
O5           C11   1.264       .  A
O6          Ni24   1.901       .  S
O6            C8   1.267       .  A
Ni7          O10   1.921       .  S
Ni7          O12   1.917       .  S
C8           O18   1.275       .  A
C8         C1143   1.436       .  S
O9          Ni25   1.949       .  S
O9           C15   1.290       .  A
O10          C15   1.277       .  A
C11        C1146   1.435       .  S
O12          C14   1.269       .  A
O13         Ni24   1.914       .  S
C14          O20   1.263       .  A
C14        C1147   1.432       .  S
C15        C1142   1.448       .  S
H16          O17   0.966       .  S
O17         Ni25   1.931       .  S
O17         Ni19   1.901       .  S
O17         Ni24   1.899       .  S
O18         Ni19   1.939       .  S
Ni19         O23   1.908       .  S
Ni19         O21   1.919       .  S
O20         Ni25   1.907       .  S
C22          O23   1.267       .  A
C22        C1149   1.440   1_655  S
O27         Ni33   1.938       .  S
O27          C48   1.274   1_455  A
O28         Ni51   1.927       .  S
O28          C37   1.274       .  A
O29         Ni33   1.900   1_655  S
O29         Ni51   1.905       .  S
O29         Ni45   1.906       .  S
O29          H52   0.967       .  S
C30          O47   1.272       .  A
C30          O39   1.272       .  A
C30        C1152   1.428       .  S
O31         Ni50   1.909       .  S
O31          C37   1.264       .  A
O32         Ni50   1.901       .  S
O32          C34   1.267       .  A
Ni33         O36   1.921       .  S
Ni33         O38   1.918       .  S
C34          O44   1.275       .  A
C34        C1133   1.436       .  S
O35         Ni51   1.948       .  S
O35          C41   1.290   1_655  A
O36          C41   1.277       .  A
C37        C1138   1.435   1_545  S
O38          C40   1.269       .  A
O39         Ni50   1.914       .  S
C40          O46   1.263       .  A
C40        C1139   1.432       .  S
C41        C1132   1.448       .  S
H42          O43   0.966       .  S
O43         Ni51   1.931       .  S
O43         Ni45   1.901       .  S
O43         Ni50   1.899       .  S
O44         Ni45   1.939       .  S
Ni45         O49   1.908       .  S
Ni45         O47   1.919       .  S
O46         Ni51   1.907   1_455  S
C48          O49   1.267       .  A
C48        C1135   1.440       .  S
O53         Ni59   1.936       .  S
O53          C74   1.273       .  A
O54         Ni77   1.927       .  S
O54          C63   1.274   1_655  A
O55         Ni59   1.900       .  S
O55         Ni77   1.905       .  S
O55         Ni71   1.909       .  S
O55          H78   0.967       .  S
C56          O73   1.273       .  A
C56          O65   1.272       .  A
C56        C1127   1.430       .  S
O57         Ni76   1.908   1_455  S
O57          C63   1.264       .  A
O58         Ni76   1.901       .  S
O58          C60   1.267       .  A
Ni59         O62   1.921       .  S
Ni59         O64   1.916       .  S
C60          O70   1.277       .  A
C60        C1123   1.440       .  S
O61         Ni77   1.949       .  S
O61          C67   1.290       .  A
O62          C67   1.277       .  A
C63        C1129   1.434       .  S
O64          C66   1.269       .  A
O65         Ni76   1.914       .  S
C66          O72   1.263       .  A
C66        C1137   1.432       .  S
C67        C1121   1.448       .  S
H68          O69   0.966       .  S
O69         Ni77   1.931       .  S
O69         Ni71   1.899       .  S
O69         Ni76   1.897       .  S
O70         Ni71   1.944       .  S
Ni71         O75   1.909       .  S
Ni71         O73   1.923       .  S
O72         Ni77   1.910       .  S
C74          O75   1.267       .  A
C74        C1126   1.439       .  S
O79         Ni85   1.937       .  S
O79         C100   1.273       .  A
O80        Ni103   1.930       .  S
O80          C89   1.274       .  A
O81         Ni85   1.900       .  S
O81        Ni103   1.906       .  S
O81         Ni97   1.908       .  S
O81         H104   0.967       .  S
C82          O99   1.273       .  A
C82          O91   1.272       .  A
C82        C1128   1.430       .  S
O83        Ni102   1.908       .  S
O83          C89   1.263       .  A
O84        Ni102   1.900       .  S
O84          C86   1.266       .  A
Ni85         O88   1.921       .  S
Ni85         O90   1.916       .  S
C86          O96   1.276       .  A
C86        C1116   1.437       .  S
O87        Ni103   1.949       .  S
O87          C93   1.290       .  A
O88          C93   1.277       .  A
C89        C1148   1.435       .  S
O90          C92   1.269       .  A
O91        Ni102   1.914       .  S
C92          O98   1.263       .  A
C92        C1117   1.431       .  S
C93        C1113   1.448       .  S
H94          O95   0.966       .  S
O95        Ni103   1.931       .  S
O95         Ni97   1.902       .  S
O95        Ni102   1.898       .  S
O96         Ni97   1.941       .  S
Ni97        O101   1.913       .  S
Ni97         O99   1.922       .  S
O98        Ni103   1.908       .  S
C100        O101   1.268       .  A
C100       C1119   1.442       .  S
O105       Ni111   1.938       .  S
O105        C126   1.273       .  A
O106       Ni129   1.930       .  S
O106        C115   1.275       .  A
O107       Ni111   1.900       .  S
O107       Ni129   1.906       .  S
O107       Ni123   1.908       .  S
O107        H130   0.967       .  S
C108        O125   1.273       .  A
C108        O117   1.272       .  A
C108       C1111   1.431       .  S
O109       Ni128   1.909       .  S
O109        C115   1.263       .  A
O110       Ni128   1.900       .  S
O110        C112   1.267       .  A
Ni111       O114   1.921       .  S
Ni111       O116   1.916       .  S
C112        O122   1.276       .  A
C112       C1107   1.437       .  S
O113       Ni129   1.949       .  S
O113        C119   1.290       .  A
O114        C119   1.277       .  A
C115       C1140   1.435       .  S
O116        C118   1.269       .  A
O117       Ni128   1.915       .  S
C118        O124   1.263       .  A
C118       C1130   1.431   1_545  S
C119       C1105   1.448       .  S
H120        O121   0.966       .  S
O121       Ni129   1.931       .  S
O121       Ni123   1.902       .  S
O121       Ni128   1.899       .  S
O122       Ni123   1.942       .  S
Ni123       O127   1.912       .  S
Ni123       O125   1.922       .  S
O124       Ni129   1.908       .  S
C126        O127   1.268       .  A
C126       C1109   1.442       .  S
O131       Ni137   1.936       .  S
O131        C152   1.273       .  A
O132       Ni155   1.927       .  S
O132        C141   1.274       .  A
O133       Ni137   1.900       .  S
O133       Ni155   1.905       .  S
O133       Ni149   1.908       .  S
O133        H156   0.967       .  S
C134        O151   1.273       .  A
C134        O143   1.272       .  A
C134       C1112   1.431       .  S
O135       Ni154   1.909       .  S
O135        C141   1.264       .  A
O136       Ni154   1.901       .  S
O136        C138   1.267       .  A
Ni137       O140   1.921       .  S
Ni137       O142   1.916       .  S
C138        O148   1.277       .  A
C138       C1101   1.440       .  S
O139       Ni155   1.949       .  S
O139        C145   1.290       .  A
O140        C145   1.277       .  A
C141       C1118   1.434       .  S
O142        C144   1.269       .  A
O143       Ni154   1.915       .  S
C144        O150   1.263       .  A
C144       C1145   1.432       .  S
C145       C1099   1.448       .  S
H146        O147   0.966       .  S
O147       Ni155   1.931       .  S
O147       Ni149   1.900       .  S
O147       Ni154   1.897       .  S
O148       Ni149   1.944       .  S
Ni149       O153   1.909       .  S
Ni149       O151   1.922       .  S
O150       Ni155   1.910       .  S
C152        O153   1.267       .  A
C152       C1103   1.439       .  S
O157       Ni163   1.937       .  S
O157        C178   1.273       .  A
O158       Ni181   1.927       .  S
O158        C167   1.274       .  A
O159       Ni163   1.900       .  S
O159       Ni181   1.905       .  S
O159       Ni175   1.909   1_556  S
O159        H182   0.967       .  S
C160        O177   1.273       .  A
C160        O169   1.272       .  A
C160       C1098   1.430       .  S
O161       Ni180   1.909   1_556  S
O161        C167   1.264       .  A
O162       Ni180   1.901       .  S
O162        C164   1.267   1_554  A
Ni163       O166   1.921       .  S
Ni163       O168   1.916       .  S
C164        O174   1.277       .  A
C164       C1090   1.440       .  S
O165       Ni181   1.949       .  S
O165        C171   1.290       .  A
O166        C171   1.277       .  A
C167       C1093   1.434       .  S
O168        C170   1.269       .  A
O169       Ni180   1.914       .  S
C170        O176   1.263       .  A
C170       C1092   1.432       .  S
C171       C1088   1.448       .  S
H172        O173   0.966       .  S
O173       Ni181   1.931   1_554  S
O173       Ni175   1.900       .  S
O173       Ni180   1.897       .  S
O174       Ni175   1.944   1_556  S
Ni175       O179   1.909   1_554  S
Ni175       O177   1.923       .  S
O176       Ni181   1.910       .  S
C178        O179   1.267       .  A
C178       C1095   1.439       .  S
O183       Ni189   1.937       .  S
O183        C204   1.273       .  A
O184       Ni207   1.930       .  S
O184        C193   1.275       .  A
O185       Ni189   1.900       .  S
O185       Ni207   1.906       .  S
O185       Ni201   1.907       .  S
O185        H208   0.967       .  S
C186        O203   1.273       .  A
C186        O195   1.272       .  A
C186       C1097   1.430       .  S
O187       Ni206   1.909       .  S
O187        C193   1.263       .  A
O188       Ni206   1.900       .  S
O188        C190   1.267       .  A
Ni189       O192   1.921       .  S
Ni189       O194   1.916       .  S
C190        O200   1.276       .  A
C190       C1080   1.437       .  S
O191       Ni207   1.949       .  S
O191        C197   1.290       .  A
O192        C197   1.277       .  A
C193       C1081   1.435       .  S
O194        C196   1.269       .  A
O195       Ni206   1.915       .  S
C196        O202   1.263       .  A
C196       C1084   1.431   1_455  S
C197       C1131   1.448       .  S
H198        O199   0.966       .  S
O199       Ni207   1.931       .  S
O199       Ni201   1.902       .  S
O199       Ni206   1.899       .  S
O200       Ni201   1.941       .  S
Ni201       O205   1.912       .  S
Ni201       O203   1.922       .  S
O202       Ni207   1.908       .  S
C204        O205   1.268       .  A
C204       C1085   1.442       .  S
O209       Ni215   1.938       .  S
O209        C230   1.273       .  A
O210       Ni233   1.930       .  S
O210        C219   1.274       .  A
O211       Ni215   1.900       .  S
O211       Ni233   1.906       .  S
O211       Ni227   1.907   1_556  S
O211        H234   0.967       .  S
C212        O229   1.273       .  A
C212        O221   1.272       .  A
C212       C1077   1.430       .  S
O213       Ni232   1.908   1_556  S
O213        C219   1.263       .  A
O214       Ni232   1.900       .  S
O214        C216   1.267   1_554  A
Ni215       O218   1.921       .  S
Ni215       O220   1.916       .  S
C216        O226   1.276       .  A
C216       C1072   1.437       .  S
O217       Ni233   1.948       .  S
O217        C223   1.290       .  A
O218        C223   1.277       .  A
C219       C1074   1.435       .  S
O220        C222   1.269       .  A
O221       Ni232   1.914       .  S
C222        O228   1.263       .  A
C222       C1094   1.431       .  S
C223       C1070   1.447       .  S
H224        O225   0.966       .  S
O225       Ni233   1.931   1_554  S
O225       Ni227   1.902       .  S
O225       Ni232   1.899       .  S
O226       Ni227   1.941   1_556  S
Ni227       O231   1.912   1_554  S
Ni227       O229   1.921       .  S
O228       Ni233   1.908       .  S
C230        O231   1.268       .  A
C230       C1075   1.442       .  S
O235       Ni241   1.936       .  S
O235        C256   1.273       .  A
O236       Ni259   1.927   1_545  S
O236        C245   1.274       .  A
O237       Ni241   1.900       .  S
O237       Ni259   1.905       .  S
O237       Ni253   1.909       .  S
O237        H260   0.967       .  S
C238        O255   1.273       .  A
C238        O247   1.272       .  A
C238       C1078   1.430       .  S
O239       Ni258   1.909   1_545  S
O239        C245   1.264       .  A
O240       Ni258   1.901       .  S
O240        C242   1.267       .  A
Ni241       O244   1.921       .  S
Ni241       O246   1.916       .  S
C242        O252   1.277       .  A
C242       C1063   1.440       .  S
O243       Ni259   1.949       .  S
O243        C249   1.290       .  A
O244        C249   1.277       .  A
C245       C1083   1.434       .  S
O246        C248   1.269       .  A
O247       Ni258   1.914       .  S
C248        O254   1.263       .  A
C248       C1065   1.432       .  S
C249       C1122   1.448       .  S
H250        O251   0.966       .  S
O251       Ni259   1.931       .  S
O251       Ni253   1.899       .  S
O251       Ni258   1.897       .  S
O252       Ni253   1.944       .  S
Ni253       O257   1.909       .  S
Ni253       O255   1.922       .  S
O254       Ni259   1.910       .  S
C256        O257   1.267       .  A
C256       C1068   1.439       .  S
O261       Ni267   1.938       .  S
O261        C282   1.274       .  A
O262       Ni285   1.928       .  S
O262        C271   1.274       .  A
O263       Ni267   1.900       .  S
O263       Ni285   1.905       .  S
O263       Ni279   1.906   1_556  S
O263        H286   0.967       .  S
C264        O281   1.272       .  A
C264        O273   1.272       .  A
C264       C1061   1.428       .  S
O265       Ni284   1.909   1_556  S
O265        C271   1.264       .  A
O266       Ni284   1.901       .  S
O266        C268   1.267   1_554  A
Ni267       O270   1.921       .  S
Ni267       O272   1.917       .  S
C268        O278   1.275       .  A
C268       C1058   1.436       .  S
O269       Ni285   1.949       .  S
O269        C275   1.290       .  A
O270        C275   1.277       .  A
C271       C1091   1.435       .  S
O272        C274   1.269       .  A
O273       Ni284   1.914       .  S
C274        O280   1.263       .  A
C274       C1073   1.432       .  S
C275       C1055   1.448       .  S
H276        O277   0.966       .  S
O277       Ni285   1.931   1_554  S
O277       Ni279   1.901       .  S
O277       Ni284   1.899       .  S
O278       Ni279   1.939   1_556  S
Ni279       O283   1.908   1_554  S
Ni279       O281   1.919       .  S
O280       Ni285   1.907       .  S
C282        O283   1.267       .  A
C282       C1059   1.440   1_565  S
O287       Ni293   1.938       .  S
O287        C308   1.274   1_545  A
O288       Ni311   1.928       .  S
O288        C297   1.274       .  A
O289       Ni293   1.900   1_565  S
O289       Ni311   1.905       .  S
O289       Ni305   1.906       .  S
O289        H312   0.967       .  S
C290        O307   1.272       .  A
C290        O299   1.272       .  A
C290       C1062   1.428       .  S
O291       Ni310   1.909       .  S
O291        C297   1.264       .  A
O292       Ni310   1.901       .  S
O292        C294   1.267       .  A
Ni293       O296   1.921       .  S
Ni293       O298   1.917       .  S
C294        O304   1.275       .  A
C294       C1051   1.436       .  S
O295       Ni311   1.948       .  S
O295        C301   1.290   1_565  A
O296        C301   1.277       .  A
C297       C1066   1.435   1_455  S
O298        C300   1.269       .  A
O299       Ni310   1.914       .  S
C300        O306   1.263       .  A
C300       C1082   1.432       .  S
C301       C1106   1.448       .  S
H302        O303   0.966       .  S
O303       Ni311   1.931       .  S
O303       Ni305   1.901       .  S
O303       Ni310   1.899       .  S
O304       Ni305   1.939       .  S
Ni305       O309   1.908       .  S
Ni305       O307   1.919       .  S
O306       Ni311   1.907   1_545  S
C308        O309   1.267       .  A
C308       C1054   1.440       .  S
O313       Ni319   1.909       .  S
O313        C334   1.264       .  A
O314       Ni337   1.909   1_545  S
O314        C323   1.267       .  A
O315       Ni319   1.897       .  S
O315       Ni337   1.899       .  S
O315       Ni331   1.931       .  S
O315        H338   0.966       .  S
C316        O333   1.290       .  A
C316        O325   1.277       .  A
C316       C1043   1.448       .  S
O317       Ni336   1.936   1_545  S
O317        C323   1.273       .  A
O318       Ni336   1.916       .  S
O318        C320   1.269       .  A
Ni319       O322   1.914       .  S
Ni319       O324   1.901       .  S
C320        O330   1.263       .  A
C320       C1048   1.431       .  S
O321       Ni337   1.923   1_545  S
O321        C327   1.273       .  A
O322        C327   1.272   1_565  A
C323       C1134   1.438       .  S
O324        C326   1.267   1_565  A
O325       Ni336   1.921       .  S
C326        O332   1.277       .  A
C326       C1110   1.439       .  S
C327       C1049   1.430       .  S
H328        O329   0.967       .  S
O329       Ni337   1.908       .  S
O329       Ni331   1.905       .  S
O329       Ni336   1.900       .  S
O330       Ni331   1.909       .  S
Ni331       O335   1.927       .  S
Ni331       O333   1.949       .  S
O332       Ni337   1.944   1_545  S
C334        O335   1.274       .  A
C334       C1045   1.434       .  S
O339       Ni345   1.909       .  S
O339        C360   1.263       .  A
O340       Ni363   1.913       .  S
O340        C349   1.268       .  A
O341       Ni345   1.899       .  S
O341       Ni363   1.902       .  S
O341       Ni357   1.931       .  S
O341        H364   0.966       .  S
C342        O359   1.290       .  A
C342        O351   1.277       .  A
C342       C1037   1.448       .  S
O343       Ni362   1.938       .  S
O343        C349   1.273       .  A
O344       Ni362   1.916       .  S
O344        C346   1.269       .  A
Ni345       O348   1.914       .  S
Ni345       O350   1.900       .  S
C346        O356   1.263       .  A
C346       C1040   1.431       .  S
O347       Ni363   1.922       .  S
O347        C353   1.273       .  A
O348        C353   1.272       .  A
C349       C1064   1.442   1_545  S
O350        C352   1.267       .  A
O351       Ni362   1.921       .  S
C352        O358   1.276       .  A
C352       C1053   1.437       .  S
C353       C1050   1.430       .  S
H354        O355   0.967       .  S
O355       Ni363   1.908       .  S
O355       Ni357   1.906       .  S
O355       Ni362   1.900       .  S
O356       Ni357   1.908       .  S
Ni357       O361   1.930       .  S
Ni357       O359   1.949       .  S
O358       Ni363   1.941       .  S
C360        O361   1.274       .  A
C360       C1042   1.435       .  S
O365       Ni371   1.909       .  S
O365        C386   1.264       .  A
O366       Ni389   1.913       .  S
O366        C375   1.268       .  A
O367       Ni371   1.899       .  S
O367       Ni389   1.902       .  S
O367       Ni383   1.931       .  S
O367        H390   0.966       .  S
C368        O385   1.290       .  A
C368        O377   1.277       .  A
C368       C1032   1.449       .  S
O369       Ni388   1.938       .  S
O369        C375   1.273       .  A
O370       Ni388   1.916       .  S
O370        C372   1.269       .  A
Ni371       O374   1.915       .  S
Ni371       O376   1.900       .  S
C372        O382   1.263       .  A
C372       C1046   1.431       .  S
O373       Ni389   1.922       .  S
O373        C379   1.273       .  A
O374        C379   1.272       .  A
C375       C1124   1.442   1_455  S
O376        C378   1.267       .  A
O377       Ni388   1.921       .  S
C378        O384   1.276       .  A
C378       C1136   1.437       .  S
C379       C1034   1.431       .  S
H380        O381   0.967       .  S
O381       Ni389   1.908       .  S
O381       Ni383   1.906       .  S
O381       Ni388   1.900       .  S
O382       Ni383   1.908       .  S
Ni383       O387   1.930       .  S
Ni383       O385   1.950       .  S
O384       Ni389   1.942       .  S
C386        O387   1.275       .  A
C386       C1035   1.435       .  S
O391       Ni397   1.909       .  S
O391        C412   1.264       .  A
O392       Ni415   1.909   1_455  S
O392        C401   1.267       .  A
O393       Ni397   1.897       .  S
O393       Ni415   1.900       .  S
O393       Ni409   1.931       .  S
O393        H416   0.966       .  S
C394        O411   1.290       .  A
C394        O403   1.277       .  A
C394       C1028   1.449       .  S
O395       Ni414   1.936   1_455  S
O395        C401   1.273       .  A
O396       Ni414   1.916       .  S
O396        C398   1.269       .  A
Ni397       O400   1.915       .  S
Ni397       O402   1.901       .  S
C398        O408   1.263       .  A
C398       C1029   1.432       .  S
O399       Ni415   1.923   1_455  S
O399        C405   1.273   1_455  A
O400        C405   1.272       .  A
C401       C1052   1.438       .  S
O402        C404   1.267   1_655  A
O403       Ni414   1.921       .  S
C404        O410   1.277       .  A
C404       C1086   1.439       .  S
C405       C1033   1.431   1_655  S
H406        O407   0.967       .  S
O407       Ni415   1.909       .  S
O407       Ni409   1.905       .  S
O407       Ni414   1.900       .  S
O408       Ni409   1.909       .  S
Ni409       O413   1.927       .  S
Ni409       O411   1.950       .  S
O410       Ni415   1.944   1_455  S
C412        O413   1.274       .  A
C412       C1039   1.434       .  S
O417       Ni423   1.909       .  S
O417        C438   1.264       .  A
O418       Ni441   1.908       .  S
O418        C427   1.267       .  A
O419       Ni423   1.899       .  S
O419       Ni441   1.901       .  S
O419       Ni435   1.930       .  S
O419        H442   0.966       .  S
C420        O437   1.290       .  A
C420        O429   1.277       .  A
C420       C1023   1.447       .  S
O421       Ni440   1.938       .  S
O421        C427   1.274       .  A
O422       Ni440   1.917       .  S
O422        C424   1.269       .  A
Ni423       O426   1.914       .  S
Ni423       O428   1.901       .  S
C424        O434   1.263       .  A
C424       C1036   1.432       .  S
O425       Ni441   1.919       .  S
O425        C431   1.272       .  A
O426        C431   1.272       .  A
C427       C1108   1.440       .  S
O428        C430   1.267       .  A
O429       Ni440   1.921       .  S
C430        O436   1.275       .  A
C430       C1125   1.436       .  S
C431       C1026   1.428       .  S
H432        O433   0.967       .  S
O433       Ni441   1.906       .  S
O433       Ni435   1.905       .  S
O433       Ni440   1.900       .  S
O434       Ni435   1.908       .  S
Ni435       O439   1.927       .  S
Ni435       O437   1.948       .  S
O436       Ni441   1.939       .  S
C438        O439   1.274       .  A
C438       C1047   1.435       .  S
O443       Ni449   1.909       .  S
O443        C464   1.264       .  A
O444       Ni467   1.908       .  S
O444        C453   1.267       .  A
O445       Ni449   1.899       .  S
O445       Ni467   1.901       .  S
O445       Ni461   1.931       .  S
O445        H468   0.966       .  S
C446        O463   1.290       .  A
C446        O455   1.277       .  A
C446       C1021   1.447       .  S
O447       Ni466   1.938       .  S
O447        C453   1.274       .  A
O448       Ni466   1.917       .  S
O448        C450   1.269       .  A
Ni449       O452   1.914       .  S
Ni449       O454   1.901       .  S
C450        O460   1.263       .  A
C450       C1041   1.432       .  S
O451       Ni467   1.919       .  S
O451        C457   1.272       .  A
O452        C457   1.272       .  A
C453       C1079   1.440       .  S
O454        C456   1.267       .  A
O455       Ni466   1.921       .  S
C456        O462   1.275       .  A
C456       C1067   1.436       .  S
C457       C1025   1.428       .  S
H458        O459   0.967       .  S
O459       Ni467   1.906       .  S
O459       Ni461   1.905       .  S
O459       Ni466   1.900       .  S
O460       Ni461   1.907       .  S
Ni461       O465   1.928       .  S
Ni461       O463   1.948       .  S
O462       Ni467   1.939       .  S
C464        O465   1.274       .  A
C464       C1030   1.435       .  S
O469       Ni475   1.908       .  S
O469        C490   1.263       .  A
O470       Ni493   1.913       .  S
O470        C479   1.268       .  A
O471       Ni475   1.899       .  S
O471       Ni493   1.902       .  S
O471       Ni487   1.931       .  S
O471        H494   0.966       .  S
C472        O489   1.290       .  A
C472        O481   1.277       .  A
C472       C1024   1.447       .  S
O473       Ni492   1.937       .  S
O473        C479   1.273       .  A
O474       Ni492   1.916       .  S
O474        C476   1.269       .  A
Ni475       O478   1.914       .  S
Ni475       O480   1.900       .  S
C476        O486   1.263       .  A
C476       C1018   1.431       .  S
O477       Ni493   1.921       .  S
O477        C483   1.273       .  A
O478        C483   1.272       .  A
C479       C1102   1.442       .  S
O480        C482   1.266       .  A
O481       Ni492   1.921       .  S
C482        O488   1.276       .  A
C482       C1150   1.437       .  S
C483       C1019   1.430       .  S
H484        O485   0.967       .  S
O485       Ni493   1.907       .  S
O485       Ni487   1.906       .  S
O485       Ni492   1.900       .  S
O486       Ni487   1.908       .  S
Ni487       O491   1.930       .  S
Ni487       O489   1.948       .  S
O488       Ni493   1.941       .  S
C490        O491   1.274       .  A
C490       C1015   1.435       .  S
O495       Ni501   1.909       .  S
O495        C516   1.264       .  A
O496       Ni519   1.909       .  S
O496        C505   1.267       .  A
O497       Ni501   1.897       .  S
O497       Ni519   1.899       .  S
O497       Ni513   1.931       .  S
O497        H520   0.966       .  S
C498        O515   1.290       .  A
C498        O507   1.277       .  A
C498       C1006   1.448       .  S
O499       Ni518   1.936       .  S
O499        C505   1.273       .  A
O500       Ni518   1.916       .  S
O500        C502   1.269       .  A
Ni501       O504   1.914       .  S
Ni501       O506   1.901       .  S
C502        O512   1.263       .  A
C502       C1009   1.432       .  S
O503       Ni519   1.922       .  S
O503        C509   1.273       .  A
O504        C509   1.272       .  A
C505       C1013   1.439       .  S
O506        C508   1.267       .  A
O507       Ni518   1.921       .  S
C508        O514   1.277       .  A
C508       C1007   1.440       .  S
C509       C1020   1.430       .  S
H510        O511   0.967       .  S
O511       Ni519   1.908       .  S
O511       Ni513   1.905       .  S
O511       Ni518   1.900       .  S
O512       Ni513   1.910       .  S
Ni513       O517   1.927       .  S
Ni513       O515   1.948       .  S
O514       Ni519   1.944       .  S
C516        O517   1.274       .  A
C516       C1011   1.434   1_455  S
O521       Ni527   1.909       .  S
O521        C542   1.264       .  A
O522       Ni545   1.908       .  S
O522        C531   1.267       .  A
O523       Ni527   1.899       .  S
O523       Ni545   1.901       .  S
O523       Ni539   1.931       .  S
O523        H546   0.966       .  S
C524        O541   1.290       .  A
C524        O533   1.277       .  A
C524       C1031   1.448       .  S
O525       Ni544   1.938       .  S
O525        C531   1.274       .  A
O526       Ni544   1.917       .  S
O526        C528   1.269       .  A
Ni527       O530   1.914       .  S
Ni527       O532   1.901       .  S
C528        O538   1.263       .  A
C528       C1016   1.432       .  S
O529       Ni545   1.919       .  S
O529        C535   1.272       .  A
O530        C535   1.272       .  A
C531       C1115   1.440       .  S
O532        C534   1.267       .  A
O533       Ni544   1.921       .  S
C534        O540   1.275       .  A
C534       C1104   1.436       .  S
C535       C1003   1.428       .  S
H536        O537   0.967       .  S
O537       Ni545   1.907       .  S
O537       Ni539   1.905       .  S
O537       Ni544   1.900       .  S
O538       Ni539   1.907       .  S
Ni539       O543   1.928       .  S
Ni539       O541   1.949       .  S
O540       Ni545   1.939       .  S
C542        O543   1.274       .  A
C542       C1002   1.435       .  S
O547       Ni553   1.909   1_545  S
O547        C568   1.264       .  A
O548       Ni571   1.908       .  S
O548        C557   1.267       .  A
O549       Ni553   1.899       .  S
O549       Ni571   1.901       .  S
O549       Ni565   1.931       .  S
O549        H572   0.966       .  S
C550        O567   1.290       .  A
C550        O559   1.277       .  A
C550        C993   1.448       .  S
O551       Ni570   1.938       .  S
O551        C557   1.274       .  A
O552       Ni570   1.918       .  S
O552        C554   1.269       .  A
Ni553       O556   1.914       .  S
Ni553       O558   1.901       .  S
C554        O564   1.263       .  A
C554        C999   1.432   1_455  S
O555       Ni571   1.919       .  S
O555        C561   1.272       .  A
O556        C561   1.272       .  A
C557        C997   1.440       .  S
O558        C560   1.267       .  A
O559       Ni570   1.921       .  S
C560        O566   1.275       .  A
C560        C995   1.436       .  S
C561       C1004   1.428       .  S
H562        O563   0.967       .  S
O563       Ni571   1.906       .  S
O563       Ni565   1.905       .  S
O563       Ni570   1.900       .  S
O564       Ni565   1.907       .  S
Ni565       O569   1.927   1_565  S
Ni565       O567   1.949       .  S
O566       Ni571   1.939       .  S
C568        O569   1.274       .  A
C568       C1010   1.435       .  S
O573       Ni579   1.909       .  S
O573        C594   1.264       .  A
O574       Ni597   1.909       .  S
O574        C583   1.267       .  A
O575       Ni579   1.897       .  S
O575       Ni597   1.900       .  S
O575       Ni591   1.931       .  S
O575        H598   0.966       .  S
C576        O593   1.290       .  A
C576        O585   1.277       .  A
C576       C1044   1.448       .  S
O577       Ni596   1.937       .  S
O577        C583   1.273       .  A
O578       Ni596   1.916       .  S
O578        C580   1.269       .  A
Ni579       O582   1.914       .  S
Ni579       O584   1.901       .  S
C580        O590   1.263       .  A
C580       C1001   1.432       .  S
O581       Ni597   1.922       .  S
O581        C587   1.273       .  A
O582        C587   1.272       .  A
C583       C1144   1.439   1_565  S
O584        C586   1.267       .  A
O585       Ni596   1.921       .  S
C586        O592   1.277       .  A
C586       C1120   1.440       .  S
C587        C992   1.430       .  S
H588        O589   0.967       .  S
O589       Ni597   1.909       .  S
O589       Ni591   1.905       .  S
O589       Ni596   1.900       .  S
O590       Ni591   1.910       .  S
Ni591       O595   1.927       .  S
Ni591       O593   1.949       .  S
O592       Ni597   1.944       .  S
C594        O595   1.274       .  A
C594       C1017   1.434       .  S
O599       Ni605   1.909       .  S
O599        C620   1.263       .  A
O600       Ni623   1.912       .  S
O600        C609   1.268       .  A
O601       Ni605   1.899       .  S
O601       Ni623   1.902       .  S
O601       Ni617   1.931       .  S
O601        H624   0.966       .  S
C602        O619   1.290   1_545  A
C602        O611   1.277       .  A
C602        C986   1.448       .  S
O603       Ni622   1.937       .  S
O603        C609   1.273   1_545  A
O604       Ni622   1.916       .  S
O604        C606   1.269       .  A
Ni605       O608   1.914       .  S
Ni605       O610   1.900       .  S
C606        O616   1.263       .  A
C606       C1012   1.431       .  S
O607       Ni623   1.922       .  S
O607        C613   1.273       .  A
O608        C613   1.272       .  A
C609        C989   1.442       .  S
O610        C612   1.267       .  A
O611       Ni622   1.921       .  S
C612        O618   1.276       .  A
C612        C988   1.437       .  S
C613        C991   1.430       .  S
H614        O615   0.967       .  S
O615       Ni623   1.907       .  S
O615       Ni617   1.906       .  S
O615       Ni622   1.900   1_565  S
O616       Ni617   1.908   1_545  S
Ni617       O621   1.930       .  S
Ni617       O619   1.949       .  S
O618       Ni623   1.941       .  S
C620        O621   1.275       .  A
C620       C1000   1.435       .  S
O625       Ni631   1.909       .  S
O625        C646   1.264       .  A
O626       Ni649   1.909       .  S
O626        C635   1.267       .  A
O627       Ni631   1.897       .  S
O627       Ni649   1.900       .  S
O627       Ni643   1.931   1_556  S
O627        H650   0.966       .  S
C628        O645   1.290       .  A
C628        O637   1.277       .  A
C628       C1027   1.449       .  S
O629       Ni648   1.937   1_556  S
O629        C635   1.273       .  A
O630       Ni648   1.916       .  S
O630        C632   1.269   1_554  A
Ni631       O634   1.915       .  S
Ni631       O636   1.901       .  S
C632        O642   1.263   1_556  A
C632        C981   1.432       .  S
O633       Ni649   1.923       .  S
O633        C639   1.273       .  A
O634        C639   1.272       .  A
C635       C1057   1.439   1_655  S
O636        C638   1.267       .  A
O637       Ni648   1.921       .  S
C638        O644   1.277       .  A
C638       C1076   1.440       .  S
C639        C983   1.431       .  S
H640        O641   0.967       .  S
O641       Ni649   1.909   1_554  S
O641       Ni643   1.905       .  S
O641       Ni648   1.900       .  S
O642       Ni643   1.909       .  S
Ni643       O647   1.927       .  S
Ni643       O645   1.950       .  S
O644       Ni649   1.944       .  S
C646        O647   1.274   1_556  A
C646        C979   1.434       .  S
O651       Ni657   1.909       .  S
O651        C672   1.264       .  A
O652       Ni675   1.912       .  S
O652        C661   1.268       .  A
O653       Ni657   1.899       .  S
O653       Ni675   1.902       .  S
O653       Ni669   1.931       .  S
O653        H676   0.966       .  S
C654        O671   1.290   1_455  A
C654        O663   1.277       .  A
C654        C994   1.448       .  S
O655       Ni674   1.937       .  S
O655        C661   1.273   1_455  A
O656       Ni674   1.916       .  S
O656        C658   1.269       .  A
Ni657       O660   1.915       .  S
Ni657       O662   1.900       .  S
C658        O668   1.263       .  A
C658        C975   1.431       .  S
O659       Ni675   1.922       .  S
O659        C665   1.273       .  A
O660        C665   1.272       .  A
C661        C977   1.442       .  S
O662        C664   1.267       .  A
O663       Ni674   1.921       .  S
C664        O670   1.276       .  A
C664        C972   1.437       .  S
C665        C984   1.431       .  S
H666        O667   0.967       .  S
O667       Ni675   1.908       .  S
O667       Ni669   1.906       .  S
O667       Ni674   1.900   1_655  S
O668       Ni669   1.908   1_455  S
Ni669       O673   1.930       .  S
Ni669       O671   1.949       .  S
O670       Ni675   1.941       .  S
C672        O673   1.275       .  A
C672        C974   1.435       .  S
O677       Ni683   1.909       .  S
O677        C698   1.264       .  A
O678       Ni701   1.908       .  S
O678        C687   1.267       .  A
O679       Ni683   1.899       .  S
O679       Ni701   1.901       .  S
O679       Ni695   1.931   1_556  S
O679        H702   0.966       .  S
C680        O697   1.290       .  A
C680        O689   1.277       .  A
C680       C1038   1.448       .  S
O681       Ni700   1.938   1_556  S
O681        C687   1.274       .  A
O682       Ni700   1.917   1_556  S
O682        C684   1.269       .  A
Ni683       O686   1.914       .  S
Ni683       O688   1.901       .  S
C684        O694   1.263       .  A
C684        C970   1.432       .  S
O685       Ni701   1.919       .  S
O685        C691   1.272       .  A
O686        C691   1.272       .  A
C687       C1071   1.440       .  S
O688        C690   1.267       .  A
O689       Ni700   1.921       .  S
C690        O696   1.275       .  A
C690       C1096   1.436       .  S
C691        C967   1.428       .  S
H692        O693   0.967       .  S
O693       Ni701   1.906   1_554  S
O693       Ni695   1.905       .  S
O693       Ni700   1.900       .  S
O694       Ni695   1.907   1_556  S
Ni695       O699   1.928       .  S
Ni695       O697   1.948       .  S
O696       Ni701   1.939       .  S
C698        O699   1.274   1_556  A
C698        C982   1.435       .  S
O703       Ni709   1.909   1_455  S
O703        C724   1.264       .  A
O704       Ni727   1.908       .  S
O704        C713   1.267       .  A
O705       Ni709   1.899       .  S
O705       Ni727   1.901       .  S
O705       Ni721   1.931       .  S
O705        H728   0.966       .  S
C706        O723   1.290       .  A
C706        O715   1.277       .  A
C706        C985   1.447       .  S
O707       Ni726   1.938       .  S
O707        C713   1.274       .  A
O708       Ni726   1.917       .  S
O708        C710   1.269       .  A
Ni709       O712   1.914       .  S
Ni709       O714   1.901       .  S
C710        O720   1.263       .  A
C710        C973   1.432   1_545  S
O711       Ni727   1.919       .  S
O711        C717   1.272       .  A
O712        C717   1.272       .  A
C713        C965   1.440       .  S
O714        C716   1.267       .  A
O715       Ni726   1.921       .  S
C716        O722   1.275       .  A
C716        C961   1.436       .  S
C717        C968   1.428       .  S
H718        O719   0.967       .  S
O719       Ni727   1.906       .  S
O719       Ni721   1.905       .  S
O719       Ni726   1.900       .  S
O720       Ni721   1.907       .  S
Ni721       O725   1.927       .  S
Ni721       O723   1.948       .  S
O722       Ni727   1.939       .  S
C724        O725   1.274   1_455  A
C724        C963   1.435       .  S
O729       Ni735   1.908       .  S
O729        C750   1.263       .  A
O730       Ni753   1.913       .  S
O730        C739   1.268       .  A
O731       Ni735   1.898       .  S
O731       Ni753   1.902       .  S
O731       Ni747   1.931   1_556  S
O731        H754   0.966       .  S
C732        O749   1.290       .  A
C732        O741   1.277       .  A
C732       C1022   1.447       .  S
O733       Ni752   1.938   1_556  S
O733        C739   1.273       .  A
O734       Ni752   1.916       .  S
O734        C736   1.269   1_554  A
Ni735       O738   1.914       .  S
Ni735       O740   1.900       .  S
C736        O746   1.263   1_556  A
C736        C980   1.431       .  S
O737       Ni753   1.921       .  S
O737        C743   1.273       .  A
O738        C743   1.272       .  A
C739       C1089   1.442       .  S
O740        C742   1.267       .  A
O741       Ni752   1.921       .  S
C742        O748   1.276       .  A
C742       C1060   1.437       .  S
C743        C960   1.430       .  S
H744        O745   0.967       .  S
O745       Ni753   1.907   1_554  S
O745       Ni747   1.906       .  S
O745       Ni752   1.900       .  S
O746       Ni747   1.908       .  S
Ni747       O751   1.930       .  S
Ni747       O749   1.948       .  S
O748       Ni753   1.941       .  S
C750        O751   1.274   1_556  A
C750        C969   1.435       .  S
O755       Ni761   1.909       .  S
O755        C776   1.264       .  A
O756       Ni779   1.909       .  S
O756        C765   1.267       .  A
O757       Ni761   1.897       .  S
O757       Ni779   1.899       .  S
O757       Ni773   1.931       .  S
O757        H780   0.966       .  S
C758        O775   1.290       .  A
C758        O767   1.277       .  A
C758       C1005   1.448       .  S
O759       Ni778   1.936       .  S
O759        C765   1.273       .  A
O760       Ni778   1.916       .  S
O760        C762   1.269       .  A
Ni761       O764   1.914       .  S
Ni761       O766   1.901       .  S
C762        O772   1.263       .  A
C762        C964   1.431       .  S
O763       Ni779   1.922       .  S
O763        C769   1.273       .  A
O764        C769   1.272       .  A
C765        C958   1.438       .  S
O766        C768   1.267       .  A
O767       Ni778   1.921       .  S
C768        O774   1.277       .  A
C768        C956   1.440       .  S
C769        C959   1.430       .  S
H770        O771   0.967       .  S
O771       Ni779   1.908       .  S
O771       Ni773   1.905       .  S
O771       Ni778   1.900       .  S
O772       Ni773   1.910       .  S
Ni773       O777   1.927       .  S
Ni773       O775   1.949       .  S
O774       Ni779   1.944       .  S
C776        O777   1.274       .  A
C776        C976   1.434   1_545  S
O781       Ni787   1.938       .  S
O781        C802   1.274       .  A
O782       Ni805   1.927       .  S
O782        C791   1.274       .  A
O783       Ni787   1.900       .  S
O783       Ni805   1.905       .  S
O783       Ni799   1.906       .  S
O783        H806   0.967       .  S
C784        O801   1.272       .  A
C784        O793   1.272       .  A
C784        C953   1.428       .  S
O785       Ni804   1.909       .  S
O785        C791   1.264       .  A
O786       Ni804   1.901       .  S
O786        C788   1.267       .  A
Ni787       O790   1.921       .  S
Ni787       O792   1.917       .  S
C788        O798   1.275       .  A
C788       C1014   1.436       .  S
O789       Ni805   1.948       .  S
O789        C795   1.290       .  A
O790        C795   1.277       .  A
C791        C950   1.435       .  S
O792        C794   1.269       .  A
O793       Ni804   1.914       .  S
C794        O800   1.263       .  A
C794        C951   1.432       .  S
C795       C1114   1.448       .  S
H796        O797   0.966       .  S
O797       Ni805   1.931       .  S
O797       Ni799   1.901       .  S
O797       Ni804   1.899       .  S
O798       Ni799   1.939       .  S
Ni799       O803   1.908       .  S
Ni799       O801   1.919       .  S
O800       Ni805   1.907       .  S
C802        O803   1.267       .  A
C802        C987   1.440       .  S
O807       Ni813   1.938       .  S
O807        C828   1.274       .  A
O808       Ni831   1.927       .  S
O808        C817   1.274       .  A
O809       Ni813   1.900       .  S
O809       Ni831   1.905       .  S
O809       Ni825   1.906       .  S
O809        H832   0.967       .  S
C810        O827   1.272       .  A
C810        O819   1.272       .  A
C810        C954   1.428       .  S
O811       Ni830   1.909       .  S
O811        C817   1.264       .  A
O812       Ni830   1.901       .  S
O812        C814   1.267       .  A
Ni813       O816   1.921       .  S
Ni813       O818   1.917       .  S
C814        O824   1.275       .  A
C814        C957   1.436       .  S
O815       Ni831   1.948       .  S
O815        C821   1.290       .  A
O816        C821   1.277       .  A
C817        C946   1.434       .  S
O818        C820   1.269       .  A
O819       Ni830   1.914       .  S
C820        O826   1.263       .  A
C820        C948   1.432       .  S
C821       C1069   1.447       .  S
H822        O823   0.966       .  S
O823       Ni831   1.931       .  S
O823       Ni825   1.901       .  S
O823       Ni830   1.899       .  S
O824       Ni825   1.939       .  S
Ni825       O829   1.908       .  S
Ni825       O827   1.919       .  S
O826       Ni831   1.907       .  S
C828        O829   1.267       .  A
C828        C971   1.440       .  S
O833       Ni839   1.938   1_545  S
O833        C854   1.273       .  A
O834       Ni857   1.930       .  S
O834        C843   1.275       .  A
O835       Ni839   1.900       .  S
O835       Ni857   1.906       .  S
O835       Ni851   1.908       .  S
O835        H858   0.967       .  S
C836        O853   1.273       .  A
C836        O845   1.272   1_545  A
C836        C941   1.431       .  S
O837       Ni856   1.909       .  S
O837        C843   1.263       .  A
O838       Ni856   1.900       .  S
O838        C840   1.267   1_565  A
Ni839       O842   1.921       .  S
Ni839       O844   1.916       .  S
C840        O850   1.276       .  A
C840        C966   1.437       .  S
O841       Ni857   1.949       .  S
O841        C847   1.290       .  A
O842        C847   1.277       .  A
C843        C947   1.435       .  S
O844        C846   1.269       .  A
O845       Ni856   1.915       .  S
C846        O852   1.263       .  A
C846        C943   1.431       .  S
C847       C1056   1.448       .  S
H848        O849   0.966       .  S
O849       Ni857   1.931       .  S
O849       Ni851   1.902       .  S
O849       Ni856   1.899       .  S
O850       Ni851   1.942   1_545  S
Ni851       O855   1.913   1_565  S
Ni851       O853   1.922   1_565  S
O852       Ni857   1.908       .  S
C854        O855   1.268       .  A
C854        C955   1.442       .  S
O859       Ni865   1.936       .  S
O859        C880   1.273       .  A
O860       Ni883   1.927       .  S
O860        C869   1.274       .  A
O861       Ni865   1.900       .  S
O861       Ni883   1.905       .  S
O861       Ni877   1.908       .  S
O861        H884   0.967       .  S
C862        O879   1.273       .  A
C862        O871   1.272       .  A
C862        C942   1.431       .  S
O863       Ni882   1.909       .  S
O863        C869   1.264       .  A
O864       Ni882   1.901       .  S
O864        C866   1.267       .  A
Ni865       O868   1.921       .  S
Ni865       O870   1.916       .  S
C866        O876   1.277       .  A
C866        C990   1.439       .  S
O867       Ni883   1.949       .  S
O867        C873   1.290       .  A
O868        C873   1.277       .  A
C869        C940   1.434       .  S
O870        C872   1.269       .  A
O871       Ni882   1.915       .  S
C872        O878   1.263       .  A
C872        C949   1.432       .  S
C873       C1100   1.448       .  S
H874        O875   0.966       .  S
O875       Ni883   1.931       .  S
O875       Ni877   1.900       .  S
O875       Ni882   1.897       .  S
O876       Ni877   1.944       .  S
Ni877       O881   1.909       .  S
Ni877       O879   1.922       .  S
O878       Ni883   1.909       .  S
C880        O881   1.267       .  A
C880        C996   1.439   1_545  S
O885       Ni891   1.936       .  S
O885        C906   1.273       .  A
O886       Ni909   1.927       .  S
O886        C895   1.274       .  A
O887       Ni891   1.900       .  S
O887       Ni909   1.905       .  S
O887       Ni903   1.909       .  S
O887        H910   0.967       .  S
C888        O905   1.273       .  A
C888        O897   1.272       .  A
C888        C937   1.430       .  S
O889       Ni908   1.909       .  S
O889        C895   1.264       .  A
O890       Ni908   1.901       .  S
O890        C892   1.267       .  A
Ni891       O894   1.921       .  S
Ni891       O896   1.916       .  S
C892        O902   1.277       .  A
C892        C978   1.439       .  S
O893       Ni909   1.949       .  S
O893        C899   1.290       .  A
O894        C899   1.277       .  A
C895        C944   1.434       .  S
O896        C898   1.269       .  A
O897       Ni908   1.914       .  S
C898        O904   1.263       .  A
C898        C945   1.431       .  S
C899       C1087   1.448       .  S
H900        O901   0.966       .  S
O901       Ni909   1.931       .  S
O901       Ni903   1.899       .  S
O901       Ni908   1.897       .  S
O902       Ni903   1.944       .  S
Ni903       O907   1.909       .  S
Ni903       O905   1.922       .  S
O904       Ni909   1.909       .  S
C906        O907   1.267       .  A
C906        C962   1.438   1_455  S
O911       Ni917   1.938   1_455  S
O911        C932   1.273       .  A
O912       Ni935   1.930       .  S
O912        C921   1.275       .  A
O913       Ni917   1.900       .  S
O913       Ni935   1.906       .  S
O913       Ni929   1.908       .  S
O913        H936   0.967       .  S
C914        O931   1.273   1_655  A
C914        O923   1.272       .  A
C914        C938   1.430   1_655  S
O915       Ni934   1.908       .  S
O915        C921   1.263       .  A
O916       Ni934   1.900       .  S
O916        C918   1.266   1_655  A
Ni917       O920   1.921       .  S
Ni917       O922   1.916       .  S
C918        O928   1.276       .  A
C918        C998   1.437       .  S
O919       Ni935   1.949       .  S
O919        C925   1.290       .  A
O920        C925   1.277       .  A
C921        C952   1.435       .  S
O922        C924   1.269       .  A
O923       Ni934   1.914       .  S
C924        O930   1.263       .  A
C924        C939   1.431       .  S
C925       C1141   1.448       .  S
H926        O927   0.966       .  S
O927       Ni935   1.931       .  S
O927       Ni929   1.902       .  S
O927       Ni934   1.898       .  S
O928       Ni929   1.941   1_455  S
Ni929       O933   1.913   1_655  S
Ni929       O931   1.922   1_655  S
O930       Ni935   1.908       .  S
C932        O933   1.268       .  A
C932       C1008   1.442       .  S
C937        C938   1.203       .  T
C939        C940   1.205       .  T
C941        C942   1.203       .  T
C943        C944   1.205       .  T
C945        C946   1.206       .  T
C947        C948   1.206       .  T
C949        C950   1.206       .  T
C951        C952   1.206       .  T
C953        C954   1.202       .  T
C955        C956   1.210       .  T
C957        C958   1.207       .  T
C959        C960   1.203       .  T
C961        C962   1.207       .  T
C963        C964   1.206       .  T
C965        C966   1.208       .  T
C967        C968   1.202       .  T
C969        C970   1.206       .  T
C971        C972   1.208       .  T
C973        C974   1.206       .  T
C975        C976   1.205       .  T
C977        C978   1.210   1_655  T
C979        C980   1.205       .  T
C981        C982   1.206       .  T
C983        C984   1.203       .  T
C985        C986   1.215       .  T
C987        C988   1.208       .  T
C989        C990   1.210   1_565  T
C991        C992   1.203       .  T
C993        C994   1.216       .  T
C995        C996   1.207       .  T
C997        C998   1.208       .  T
C999       C1000   1.206       .  T
C1001      C1002   1.206       .  T
C1003      C1004   1.202       .  T
C1005      C1006   1.215       .  T
C1007      C1008   1.210       .  T
C1009      C1010   1.206       .  T
C1011      C1012   1.205       .  T
C1013      C1014   1.208       .  T
C1015      C1016   1.206       .  T
C1017      C1018   1.205       .  T
C1019      C1020   1.203       .  T
C1021      C1022   1.215       .  T
C1023      C1024   1.215       .  T
C1025      C1026   1.202       .  T
C1027      C1028   1.216       .  T
C1029      C1030   1.206       .  T
C1031      C1032   1.216       .  T
C1033      C1034   1.203       .  T
C1035      C1036   1.206       .  T
C1037      C1038   1.215       .  T
C1039      C1040   1.205       .  T
C1041      C1042   1.206       .  T
C1043      C1044   1.215       .  T
C1045      C1046   1.205       .  T
C1047      C1048   1.206       .  T
C1049      C1050   1.203       .  T
C1051      C1052   1.207       .  T
C1053      C1054   1.208   1_545  T
C1055      C1056   1.215       .  T
C1057      C1058   1.208       .  T
C1059      C1060   1.208       .  T
C1061      C1062   1.202       .  T
C1063      C1064   1.210       .  T
C1065      C1066   1.206       .  T
C1067      C1068   1.208       .  T
C1069      C1070   1.215       .  T
C1071      C1072   1.208   1_545  T
C1073      C1074   1.206       .  T
C1075      C1076   1.210       .  T
C1077      C1078   1.203       .  T
C1079      C1080   1.208       .  T
C1081      C1082   1.206       .  T
C1083      C1084   1.205       .  T
C1085      C1086   1.210       .  T
C1087      C1088   1.216       .  T
C1089      C1090   1.210       .  T
C1091      C1092   1.206       .  T
C1093      C1094   1.205       .  T
C1095      C1096   1.208   1_455  T
C1097      C1098   1.203       .  T
C1099      C1100   1.216       .  T
C1101      C1102   1.210       .  T
C1103      C1104   1.208   1_545  T
C1105      C1106   1.215       .  T
C1107      C1108   1.208       .  T
C1109      C1110   1.210       .  T
C1111      C1112   1.203       .  T
C1113      C1114   1.215       .  T
C1115      C1116   1.208   1_455  T
C1117      C1118   1.205       .  T
C1119      C1120   1.210       .  T
C1121      C1122   1.215       .  T
C1123      C1124   1.210       .  T
C1125      C1126   1.207       .  T
C1127      C1128   1.203       .  T
C1129      C1130   1.205       .  T
C1131      C1132   1.215       .  T
C1133      C1134   1.207       .  T
C1135      C1136   1.208   1_655  T
C1137      C1138   1.206       .  T
C1139      C1140   1.206       .  T
C1141      C1142   1.215       .  T
C1143      C1144   1.208       .  T
C1145      C1146   1.206       .  T
C1147      C1148   1.206       .  T
C1149      C1150   1.208       .  T
C1151      C1152   1.202       .  T
