geometry optimzed in LAMMPS
_audit_creation_date              2020-12-01 
_audit_creation_method            'lammps2cif' 
_symmetry_space_group_name_H-M    'P1' 
_symmetry_Int_Tables_number       1 
_symmetry_cell_setting            triclinic 
loop_ 
_symmetry_equiv_pos_as_xyz 
  x,y,z 
_cell_length_a                    53.09675752 
_cell_length_b                    52.689505550504634 
_cell_length_c                    29.430846253403402 
_cell_angle_alpha                 89.99607893193377 
_cell_angle_beta                  90.15649830832268 
_cell_angle_gamma                 89.8178705446884 
loop_ 
_atom_site_label 
_atom_site_type_symbol 
_atom_site_fract_x 
_atom_site_fract_y 
_atom_site_fract_z 
_atom_site_charge 
O1          O  0.11902695  0.36050619  0.92855817    -0.82100
C2          C  0.13664642  0.32804227  0.74884090     0.97300
O3          O  0.15329730  0.33370773  0.77785328    -0.71200
O4          O  0.14900680  0.37948620  0.81307056    -0.74800
Al5        Al  0.15160120  0.34632939  0.83881471     1.49000
C6          C  0.13691547  0.39791436  0.82964515     0.92500
O7          O  0.07961509  0.37263678  0.82410699    -0.81000
O8          O  0.08934505  0.30430578  0.87562733    -0.74600
Al9        Al  0.10039500  0.36529441  0.87473559     1.90100
O10         O  0.07232456  0.33331982  0.80407431    -0.73600
O11         O  0.13012970  0.29207607  0.82791138    -0.73500
O12         O  0.11427587  0.32387234  0.76080859    -0.79100
O13         O  0.15877092  0.31413824  0.86397539    -0.77300
O14         O  0.11836681  0.34241545  0.84427706    -1.13500
O15         O  0.15678961  0.35951544  0.89863499    -0.72700
C16         C  0.14261315  0.36147595  0.93284629     0.98100
C17         C  0.06645701  0.35658625  0.80304204     0.94400
Al18       Al  0.10289832  0.31565312  0.81927914     1.55600
O19         O  0.11976803  0.39404284  0.85821222    -0.77300
C20         C  0.15060601  0.29322908  0.84966492     0.98600
C21         C  0.07626300  0.31805301  0.90162286     0.93500
O22         O  0.07694229  0.34190917  0.89881344    -0.82600
O23         O  0.32819944  0.09052501  0.79517338    -0.82100
C24         C  0.35582629  0.15689917  0.94058562     0.97300
O25         O  0.36555111  0.13580613  0.93017752    -0.71200
O26         O  0.33244822  0.09887980  0.92557054    -0.74800
Al27       Al  0.35773995  0.11062662  0.88559393     1.49000
C28         C  0.31188737  0.08866289  0.91422778     0.92500
O29         O  0.28574881  0.13848422  0.85573499    -0.81000
O30         O  0.34285747  0.16157851  0.78545839    -0.74600
Al31       Al  0.30911172  0.11567357  0.82747776     1.90100
O32         O  0.30780508  0.17311994  0.84846930    -0.73600
O33         O  0.37754292  0.16088260  0.84892188    -0.73500
O34         O  0.34123956  0.16803379  0.91312064    -0.79100
O35         O  0.38553819  0.12009431  0.84869096    -0.77300
O36         O  0.33611262  0.12966413  0.85404840    -1.13500
O37         O  0.35507244  0.08115118  0.84896718    -0.72700
C38         C  0.34452895  0.07573749  0.81188671     0.98100
C39         C  0.28718889  0.16237919  0.85615005     0.94400
Al40       Al  0.34178501  0.16296666  0.84932200     1.55600
O41         O  0.30238806  0.09250489  0.87547946    -0.77300
C42         C  0.39260476  0.14268566  0.84300894     0.98600
C43         C  0.32682565  0.15162711  0.75928600     0.93500
O44         O  0.31081895  0.13599019  0.77399646    -0.82600
O45         O  0.11949205  0.67670142  0.10551909    -0.82100
C46         C  0.13485555  0.70966740  0.28589455     0.97300
O47         O  0.15183476  0.70494393  0.25696347    -0.71200
O48         O  0.14899955  0.65958543  0.22042259    -0.74800
Al49       Al  0.15094844  0.69277769  0.19564016     1.49000
C50         C  0.13671661  0.64095721  0.20533063     0.92500
O51         O  0.07787116  0.66648993  0.20727515    -0.81000
O52         O  0.08967937  0.73461598  0.15753217    -0.74600
Al53       Al  0.09999867  0.67318825  0.15836162     1.90100
O54         O  0.07079454  0.70580894  0.22677168    -0.73600
O55         O  0.12904354  0.74635739  0.20896565    -0.73500
O56         O  0.11239969  0.71351628  0.27346791    -0.79100
O57         O  0.15759644  0.72531565  0.17106102    -0.77300
O58         O  0.11766639  0.69612595  0.18943186    -1.13500
O59         O  0.15694271  0.68004887  0.13617080    -0.72700
C60         C  0.14307609  0.67680376  0.10188897     0.98100
C61         C  0.06442553  0.68277829  0.22707821     0.94400
Al62       Al  0.10186843  0.72275639  0.21449628     1.55600
O63         O  0.11876750  0.64434277  0.17787315    -0.77300
C64         C  0.14926256  0.74588664  0.18669390     0.98600
C65         C  0.07769278  0.72122844  0.12927970     0.93500
O66         O  0.07777931  0.69729186  0.13166694    -0.82600
O67         O  0.32338436  0.95314069  0.24253671    -0.82100
C68         C  0.34990175  0.88010076  0.10693621     0.97300
O69         O  0.35969167  0.90137086  0.11487334    -0.71200
O70         O  0.32651773  0.93808936  0.11375704    -0.74800
Al71       Al  0.35185996  0.92839699  0.15527266     1.49000
C72         C  0.30613746  0.94926261  0.12307435     0.92500
O73         O  0.27952070  0.90391225  0.18969898    -0.81000
O74         O  0.33539754  0.88148095  0.26212919    -0.74600
Al75       Al  0.30353840  0.92720648  0.21436481     1.90100
O76         O  0.30109093  0.86883053  0.19808839    -0.73600
O77         O  0.37106882  0.87999593  0.20154451    -0.73500
O78         O  0.33544041  0.87017676  0.13565855    -0.79100
O79         O  0.37965019  0.92037425  0.19322233    -0.77300
O80         O  0.33013771  0.91126203  0.18970047    -1.13500
O81         O  0.34953511  0.95980497  0.18677516    -0.72700
C82         C  0.33955487  0.96695313  0.22334398     0.98100
C83         C  0.28074597  0.88001343  0.18923244     0.94400
Al84       Al  0.33523672  0.87808322  0.19871738     1.55600
O85         O  0.29691664  0.94814064  0.16258323    -0.77300
C86         C  0.38645099  0.89817902  0.20378436     0.98600
C87         C  0.32005554  0.89309843  0.28724037     0.93500
O88         O  0.30511853  0.90954439  0.27123275    -0.82600
O89         O  0.69693506  0.08620138  0.24772019    -0.82100
C90         C  0.67067212  0.15632494  0.10804823     0.97300
O91         O  0.65983473  0.13562618  0.11698815    -0.71200
O92         O  0.69276219  0.09908994  0.11902556    -0.74800
Al93       Al  0.66751355  0.10924357  0.15948015     1.49000
C94         C  0.71362720  0.08883799  0.12818428     0.92500
O95         O  0.73952911  0.13618557  0.19289340    -0.81000
O96         O  0.68134005  0.15710597  0.26289864    -0.74600
Al97       Al  0.71600518  0.11241202  0.21857871     1.90100
O98         O  0.71723157  0.17045417  0.20286770    -0.73600
O99         O  0.64721301  0.15821931  0.19953902    -0.73500
O100        O  0.68457639  0.16685572  0.13711958    -0.79100
O101        O  0.63963300  0.11748205  0.19722157    -0.77300
O102        O  0.68903158  0.12717266  0.19289042    -1.13500
O103        O  0.67019272  0.07873944  0.19289809    -0.72700
C104        C  0.68031567  0.07233398  0.22979516     0.98100
C105        C  0.73789265  0.16008363  0.19339566     0.94400
Al106      Al  0.68318761  0.16025981  0.20009939     1.55600
O107        O  0.72332157  0.09087100  0.16739686    -0.77300
C108        C  0.63232290  0.13984760  0.20484538     0.98600
C109        C  0.69670156  0.14651948  0.28947605     0.93500
O110        O  0.71318115  0.13104128  0.27499456    -0.82600
O111        O  0.90473200  0.36167847  0.10763835    -0.82100
C112        C  0.88828453  0.32595991  0.28420486     0.97300
O113        O  0.87123941  0.33092400  0.25537564    -0.71200
O114        O  0.87418672  0.37732842  0.22319861    -0.74800
Al115      Al  0.87224986  0.34466599  0.19520381     1.49000
C116        C  0.88586830  0.39641630  0.20840877     0.92500
O117        O  0.94387307  0.37093807  0.21190403    -0.81000
O118        O  0.93357836  0.30390054  0.15458532    -0.74600
Al119      Al  0.92317397  0.36494456  0.16110832     1.90100
O120        O  0.95240797  0.33121296  0.22704445    -0.73600
O121        O  0.89404529  0.29043240  0.20380850    -0.73500
O122        O  0.91062637  0.32169759  0.27176101    -0.79100
O123        O  0.86555281  0.31271287  0.16790228    -0.77300
O124        O  0.90546879  0.34127286  0.18955527    -1.13500
O125        O  0.86676206  0.35923827  0.13617216    -0.72700
C126        C  0.88126993  0.36294748  0.10285618     0.98100
C127        C  0.95798947  0.35450416  0.22969974     0.94400
Al128      Al  0.92130285  0.31406046  0.21241940     1.55600
O129        O  0.90356178  0.39342521  0.18041692    -0.77300
C130        C  0.87376457  0.29153796  0.18136316     0.98600
C131        C  0.94604432  0.31806545  0.12844916     0.93500
O132        O  0.94649686  0.34183421  0.13417839    -0.82600
O133        O  0.90431952  0.67698431  0.92429611    -0.82100
C134        C  0.88765591  0.71679233  0.74916304     0.97300
O135        O  0.87043126  0.71174479  0.77745010    -0.71200
O136        O  0.87374992  0.66493971  0.80745495    -0.74800
Al137      Al  0.87172740  0.69696108  0.83729202     1.49000
C138        C  0.88592206  0.64567573  0.82038503     0.92500
O139        O  0.94406243  0.67108413  0.81901520    -0.81000
O140        O  0.93314002  0.73681762  0.88040166    -0.74600
Al141      Al  0.92299682  0.67571671  0.87024232     1.90100
O142        O  0.95178402  0.71121172  0.80697214    -0.73600
O143        O  0.89322568  0.75113968  0.83202954    -0.73500
O144        O  0.90986250  0.72102824  0.76238829    -0.79100
O145        O  0.86492282  0.72828575  0.86653706    -0.77300
O146        O  0.90499226  0.70008744  0.84346568    -1.13500
O147        O  0.86638717  0.68156708  0.89551310    -0.72700
C148        C  0.88076652  0.67658312  0.92863164     0.98100
C149        C  0.95783023  0.68813926  0.80255343     0.94400
Al150      Al  0.92057325  0.72772931  0.82220888     1.55600
O151        O  0.90380122  0.64797353  0.84825218    -0.77300
C152        C  0.87307340  0.74963440  0.85448706     0.98600
C153        C  0.94604718  0.72212889  0.90520083     0.93500
O154        O  0.94594185  0.69838346  0.89903477    -0.82600
O155        O  0.69593177  0.95256856  0.79292443    -0.82100
C156        C  0.66679717  0.88378132  0.93328173     0.97300
O157        O  0.65735493  0.90509768  0.92365828    -0.71200
O158        O  0.69067331  0.94177548  0.92221270    -0.74800
Al159      Al  0.66558716  0.93090991  0.88090335     1.49000
C160        C  0.71137995  0.95208501  0.91234221     0.92500
O161        O  0.73791766  0.90341396  0.85134794    -0.81000
O162        O  0.68134568  0.88153926  0.77875843    -0.74600
Al163      Al  0.71466654  0.92681108  0.82382235     1.90100
O164        O  0.71581275  0.86897517  0.84287266    -0.73600
O165        O  0.64591222  0.88158196  0.83960669    -0.73500
O166        O  0.68146517  0.87296501  0.90574594    -0.79100
O167        O  0.63785779  0.92223154  0.84293458    -0.77300
O168        O  0.68741986  0.91239783  0.84885344    -1.13500
O169        O  0.66852354  0.96098784  0.84613485    -0.72700
C170        C  0.67940637  0.96694843  0.80979421     0.98100
C171        C  0.73638902  0.87953456  0.85198771     0.94400
Al172      Al  0.68174196  0.87920800  0.84221759     1.55600
O173        O  0.72124408  0.94892304  0.87374776    -0.77300
C174        C  0.63080586  0.89987437  0.83448627     0.98600
C175        C  0.69689914  0.89228367  0.75298087     0.93500
O176        O  0.71290563  0.90783147  0.76827337    -0.82600
O177        O  0.40156116  0.17750799  0.43888789    -0.82100
C178        C  0.39168660  0.21139804  0.25910559     0.97300
O179        O  0.37372490  0.20738078  0.28634554    -0.71200
O180        O  0.37614703  0.16140837  0.31950438    -0.74800
Al181      Al  0.37285219  0.19387863  0.34667549     1.49000
C182        C  0.38777402  0.14241932  0.33513376     0.92500
O183        O  0.44586954  0.16794563  0.34098977    -0.81000
O184        O  0.43206403  0.23553318  0.39293716    -0.74600
Al185      Al  0.42253190  0.17411540  0.38823943     1.90100
O186        O  0.45372614  0.20768484  0.32500744    -0.73600
O187        O  0.39415272  0.24790776  0.33887687    -0.73500
O188        O  0.41358649  0.21571995  0.27390984    -0.79100
O189        O  0.36528283  0.22556361  0.37305543    -0.77300
O190        O  0.40576068  0.19736649  0.35650752    -1.13500
O191        O  0.36500545  0.17974556  0.40470634    -0.72700
C192        C  0.37791386  0.17719242  0.44042723     0.98100
C193        C  0.45992789  0.18453669  0.32384107     0.94400
Al194      Al  0.42196711  0.22442957  0.33445189     1.55600
O195        O  0.40428649  0.14529921  0.36567260    -0.77300
C196        C  0.37378153  0.24670841  0.36082644     0.98600
C197        C  0.44373414  0.22200969  0.42148543     0.93500
O198        O  0.44403066  0.19804611  0.41825635    -0.82600
O199        O  0.19648204  0.45073661  0.29590651    -0.82100
C200        C  0.17154655  0.37901342  0.43196210     0.97300
O201        O  0.16036922  0.39966858  0.42361941    -0.71200
O202        O  0.19328315  0.43601901  0.42508072    -0.74800
Al203      Al  0.16801368  0.42685506  0.38350024     1.49000
C204        C  0.21351630  0.44731411  0.41602674     0.92500
O205        O  0.23964910  0.40149688  0.35010116    -0.81000
O206        O  0.18244100  0.38073447  0.27683495    -0.74600
Al207      Al  0.21613459  0.42498597  0.32458221     1.90100
O208        O  0.21838531  0.36683618  0.33730154    -0.73600
O209        O  0.14810573  0.37871954  0.33951391    -0.73500
O210        O  0.18548380  0.36894834  0.40246756    -0.79100
O211        O  0.14023445  0.41939738  0.34532919    -0.77300
O212        O  0.18949710  0.40956758  0.34903247    -1.13500
O213        O  0.17072260  0.45815111  0.35201797    -0.72700
C214        C  0.18035991  0.46475635  0.31486435     0.98100
C215        C  0.23864638  0.37764141  0.34803030     0.94400
Al216      Al  0.18411540  0.37660477  0.33971984     1.55600
O217        O  0.22281910  0.44623135  0.37647104    -0.77300
C218        C  0.13303956  0.39723280  0.33593835     0.98600
C219        C  0.19785459  0.39202387  0.25156925     0.93500
O220        O  0.21418501  0.40703866  0.26766831    -0.82600
O221        O  0.82930801  0.45356983  0.73811264    -0.82100
C222        C  0.85273836  0.38267428  0.59842447     0.97300
O223        O  0.86318861  0.40372387  0.60605898    -0.71200
O224        O  0.82921016  0.43962386  0.60862434    -0.74800
Al225      Al  0.85598346  0.43043118  0.64751285     1.49000
C226        C  0.80900606  0.45053618  0.62001268     0.92500
O227        O  0.78595387  0.40317241  0.68731673    -0.81000
O228        O  0.84603960  0.38349809  0.75381170    -0.74600
Al229      Al  0.80960768  0.42717719  0.71090741     1.90100
O230        O  0.80877521  0.36914120  0.69716166    -0.73600
O231        O  0.87808561  0.38223541  0.68782273    -0.73500
O232        O  0.83936583  0.37239217  0.62847586    -0.79100
O233        O  0.88514005  0.42305215  0.68324517    -0.77300
O234        O  0.83589902  0.41253652  0.68338729    -1.13500
O235        O  0.85328462  0.46128166  0.67971372    -0.72700
C236        C  0.84421755  0.46805460  0.71720026     0.98100
C237        C  0.78781604  0.37933465  0.68917809     0.94400
Al238      Al  0.84241029  0.37965545  0.69121669     1.55600
O239        O  0.80075847  0.44866202  0.66024357    -0.77300
C240        C  0.89272965  0.40085816  0.69217190     0.98600
C241        C  0.83092403  0.39372684  0.78112975     0.93500
O242        O  0.81382127  0.40868328  0.76712805    -0.82600
O243        O  0.61650041  0.18238686  0.61104240    -0.82100
C244        C  0.63676744  0.21258572  0.79078279     0.97300
O245        O  0.65333153  0.20719864  0.76143140    -0.71200
O246        O  0.64684866  0.16237883  0.72542724    -0.74800
Al247      Al  0.65073807  0.19514775  0.69996153     1.49000
C248        C  0.63416830  0.14436058  0.70923023     0.92500
O249        O  0.57786737  0.17319541  0.71682351    -0.81000
O250        O  0.59137671  0.24081723  0.66406238    -0.74600
Al251      Al  0.59836324  0.17898820  0.66539661     1.90100
O252        O  0.57236074  0.21320635  0.73452091    -0.73600
O253        O  0.63255939  0.25039869  0.71234229    -0.73500
O254        O  0.61478834  0.21879863  0.77880255    -0.79100
O255        O  0.65922168  0.22680580  0.67487519    -0.77300
O256        O  0.61780555  0.20086457  0.69508880    -1.13500
O257        O  0.65468591  0.18199536  0.63973268    -0.72700
C258        C  0.63994574  0.18034134  0.60606464     0.98100
C259        C  0.56523195  0.19038795  0.73600513     0.94400
Al260      Al  0.60404792  0.22850407  0.72037314     1.55600
O261        O  0.61649703  0.14890062  0.68171023    -0.77300
C262        C  0.65230293  0.24822209  0.68887178     0.98600
C263        C  0.57704384  0.22798293  0.63872374     0.93500
O264        O  0.57607624  0.20408992  0.64160738    -0.82600
O265        O  0.61603080  0.85877202  0.43244441    -0.82100
C266        C  0.63045059  0.82869407  0.25121886     0.97300
O267        O  0.64787657  0.83220581  0.27998449    -0.71200
O268        O  0.64402677  0.87729875  0.31560210    -0.74800
Al269      Al  0.64707931  0.84457792  0.34144900     1.49000
C270        C  0.63251412  0.89605914  0.33204099     0.92500
O271        O  0.57475283  0.87077378  0.33095675    -0.81000
O272        O  0.58601338  0.80207320  0.37981457    -0.74600
Al273      Al  0.59653220  0.86346766  0.37996600     1.90100
O274        O  0.56722342  0.83154707  0.31092328    -0.73600
O275        O  0.62601008  0.79073030  0.32882152    -0.73500
O276        O  0.60836668  0.82398263  0.26422316    -0.79100
O277        O  0.65431347  0.81235823  0.36651061    -0.77300
O278        O  0.61400077  0.84077289  0.34833813    -1.13500
O279        O  0.65333843  0.85806754  0.40115503    -0.72700
C280        C  0.63957857  0.86009162  0.43595552     0.98100
C281        C  0.56113707  0.85473683  0.31101013     0.94400
Al282      Al  0.59830892  0.81426373  0.32307339     1.55600
O283        O  0.61564073  0.89267810  0.36162132    -0.77300
C284        C  0.64629421  0.79157523  0.35131471     0.98600
C285        C  0.57329743  0.81533223  0.40728584     0.93500
O286        O  0.57382897  0.83931825  0.40568759    -0.82600
O287        O  0.82847275  0.58907951  0.29439443    -0.82100
C288        C  0.85016432  0.66018500  0.43500745     0.97300
O289        O  0.86096244  0.63923274  0.42754160    -0.71200
O290        O  0.82755866  0.60285378  0.42442855    -0.74800
Al291      Al  0.85421605  0.61236649  0.38570397     1.49000
C292        C  0.80771700  0.59151850  0.41240061     0.92500
O293        O  0.78368799  0.63862140  0.34408046    -0.81000
O294        O  0.84298802  0.65953878  0.27841183    -0.74600
Al295      Al  0.80804374  0.61502160  0.32131840     1.90100
O296        O  0.80566435  0.67330578  0.33649924    -0.73600
O297        O  0.87564123  0.66069869  0.34371010    -0.73500
O298        O  0.83730106  0.67072828  0.40429074    -0.79100
O299        O  0.88310955  0.61993934  0.35023862    -0.77300
O300        O  0.83388346  0.63015260  0.34939634    -1.13500
O301        O  0.85214251  0.58111910  0.35338897    -0.72700
C302        C  0.84323753  0.57445091  0.31555894     0.98100
C303        C  0.78489730  0.66252039  0.34323388     0.94400
Al304      Al  0.83979595  0.66320333  0.34137749     1.55600
O305        O  0.79957935  0.59345970  0.37201415    -0.77300
C306        C  0.89033809  0.64196223  0.33974573     0.98600
C307        C  0.82865821  0.64835144  0.25089795     0.93500
O308        O  0.81191045  0.63320803  0.26492244    -0.82600
O309        O  0.39920086  0.85889802  0.60586429    -0.82100
C310        C  0.38661331  0.82907695  0.78851488     0.97300
O311        O  0.36936843  0.83303484  0.75964802    -0.71200
O312        O  0.37264444  0.87854789  0.72322897    -0.74800
Al313      Al  0.36977088  0.84521937  0.69829468     1.49000
C314        C  0.38475341  0.89694446  0.70666651     0.92500
O315        O  0.44298191  0.87172294  0.70372038    -0.81000
O316        O  0.43156756  0.80269386  0.66039809    -0.74600
Al317      Al  0.41979981  0.86384516  0.65704508     1.90100
O318        O  0.44997060  0.83322530  0.72849883    -0.73600
O319        O  0.39216126  0.79157897  0.71137934    -0.73500
O320        O  0.40894616  0.82526970  0.77569580    -0.79100
O321        O  0.36302771  0.81254154  0.67396232    -0.77300
O322        O  0.40297200  0.84158319  0.69070540    -1.13500
O323        O  0.36248605  0.85829268  0.63888026    -0.72700
C324        C  0.37561539  0.86005201  0.60339551     0.98100
C325        C  0.45623708  0.85625706  0.72598243     0.94400
Al326      Al  0.41923148  0.81546859  0.71676274     1.55600
O327        O  0.40121464  0.89305212  0.67652799    -0.77300
C328        C  0.37205329  0.79189824  0.68841867     0.98600
C329        C  0.44264458  0.81544907  0.63020056     0.93500
O330        O  0.44168829  0.83940473  0.63024171    -0.82600
O331        O  0.19654119  0.58988055  0.74608812    -0.82100
C332        C  0.17137318  0.65720295  0.60174868     0.97300
O333        O  0.16078138  0.63649248  0.61154143    -0.71200
O334        O  0.19301253  0.59893014  0.61556658    -0.74800
Al335      Al  0.16781070  0.61072510  0.65550064     1.49000
C336        C  0.21311687  0.58769884  0.62669485     0.92500
O337        O  0.23983916  0.63628856  0.68594719    -0.81000
O338        O  0.18263807  0.65999100  0.75700200    -0.74600
Al339      Al  0.21620871  0.61417821  0.71418865     1.90100
O340        O  0.21886486  0.67163854  0.69527746    -0.73600
O341        O  0.14822467  0.66097402  0.69309284    -0.73500
O342        O  0.18553018  0.66798474  0.63020079    -0.79100
O343        O  0.13994066  0.62032679  0.69216033    -0.77300
O344        O  0.18954045  0.62898349  0.68778121    -1.13500
O345        O  0.16997041  0.58092902  0.69159970    -0.72700
C346        C  0.18013060  0.57547826  0.72908993     0.98100
C347        C  0.23913138  0.66019331  0.68639057     0.94400
Al348      Al  0.18435075  0.66229945  0.69354842     1.55600
O349        O  0.22255233  0.59075537  0.66576586    -0.77300
C350        C  0.13287911  0.64293710  0.69798429     0.98600
C351        C  0.19821061  0.64939653  0.78330834     0.93500
O352        O  0.21478420  0.63429905  0.76833283    -0.82600
C353        C  0.33002087  0.74237208  0.63468722    -0.27900
C354        C  0.32512202  0.72652858  0.67202759     0.01700
C355        C  0.33833278  0.73056452  0.71300335     0.29800
C356        C  0.35495401  0.75104784  0.71692840    -0.19700
C357        C  0.35814705  0.76808616  0.68075512    -0.29100
C358        C  0.34625822  0.76312395  0.63892551     0.43900
C359        C  0.30383499  0.70833403  0.67005296     0.05000
O360        O  0.33391439  0.71562622  0.75030168    -0.57600
H361        H  0.36407327  0.75458066  0.74929576     0.18000
O362        O  0.34978785  0.77888504  0.60242037    -0.64300
H363        H  0.32034717  0.73928282  0.60271462     0.16400
C364        C  0.27941665  0.71718723  0.65995193     0.28700
C365        C  0.25881883  0.70094315  0.66384226    -0.25200
C366        C  0.26194208  0.67556380  0.67742976    -0.24500
C367        C  0.28652990  0.66626959  0.68529742     0.40100
C368        C  0.30723906  0.68270481  0.68194814    -0.26900
O369        O  0.27524967  0.74224862  0.64961165    -0.58800
H370        H  0.24016064  0.70853009  0.65731679     0.15800
O371        O  0.29042258  0.64172096  0.69916116    -0.60300
H372        H  0.32592518  0.67560228  0.68976167     0.14200
H373        H  0.36520265  0.77245404  0.58727860     0.46100
H374        H  0.27267305  0.74268891  0.61623109     0.41400
H375        H  0.29354430  0.63201850  0.67084913     0.44900
H376        H  0.31935557  0.72359851  0.76587019     0.36400
C377        C  0.69530967  0.74572256  0.39641612    -0.27900
C378        C  0.69852227  0.72955823  0.35891965     0.01700
C379        C  0.68227961  0.73211014  0.32124002     0.29800
C380        C  0.66396742  0.75131846  0.32062695    -0.19700
C381        C  0.66195121  0.76855419  0.35683704    -0.29100
C382        C  0.67728669  0.76515424  0.39551319     0.43900
C383        C  0.72031508  0.71184505  0.35763061     0.05000
O384        O  0.68510994  0.71689887  0.28376799    -0.57600
H385        H  0.65245242  0.75375805  0.29047352     0.18000
O386        O  0.67538031  0.78123037  0.43200847    -0.64300
H387        H  0.70740752  0.74377771  0.42592362     0.16400
C388        C  0.74496686  0.72120187  0.36231762     0.28700
C389        C  0.76554327  0.70478230  0.35827124    -0.25200
C390        C  0.76219908  0.67871117  0.34984270    -0.24500
C391        C  0.73743991  0.66920624  0.34630048     0.40100
C392        C  0.71675592  0.68578993  0.34984124    -0.26900
O393        O  0.74919055  0.74667570  0.36824513    -0.58800
H394        H  0.78428622  0.71269476  0.36124941     0.15800
O395        O  0.73319720  0.64402971  0.33749253    -0.60300
H396        H  0.69787136  0.67832353  0.34618027     0.14200
H397        H  0.66169340  0.77411793  0.45095578     0.46100
H398        H  0.75361540  0.74864994  0.40081334     0.41400
H399        H  0.73100351  0.63604150  0.36773026     0.44900
H400        H  0.69762089  0.72568744  0.26442337     0.36400
C401        C  0.51830414  0.78013842  0.45834420    -0.27900
C402        C  0.51781369  0.79081278  0.50207514     0.01700
C403        C  0.53775968  0.80652594  0.51609326     0.29800
C404        C  0.55684762  0.81284844  0.48561629    -0.19700
C405        C  0.55666604  0.80340784  0.44110700    -0.29100
C406        C  0.53785488  0.78604241  0.42806447     0.43900
C407        C  0.49463033  0.79021509  0.52984376     0.05000
O408        O  0.53770675  0.81737599  0.55848516    -0.57600
H409        H  0.57112624  0.82629370  0.49601741     0.18000
O410        O  0.53693820  0.77688233  0.38448949    -0.64300
H411        H  0.50282837  0.76838518  0.44691367     0.16400
C412        C  0.47444258  0.80622475  0.51778638     0.28700
C413        C  0.45628043  0.81262975  0.55009325    -0.25200
C414        C  0.45766247  0.80297044  0.59444163    -0.24500
C415        C  0.47619024  0.78471045  0.60503586     0.40100
C416        C  0.49483117  0.77874287  0.57295104    -0.26900
O417        O  0.47358376  0.81751997  0.47578829    -0.58800
H418        H  0.44198985  0.82649853  0.54134075     0.15800
O419        O  0.47795826  0.77484574  0.64803279    -0.60300
H420        H  0.51041220  0.76657938  0.58275268     0.14200
H421        H  0.54772277  0.76148463  0.38478814     0.46100
H422        H  0.48295701  0.83366334  0.47925119     0.41400
H423        H  0.46724464  0.75946703  0.64756607     0.44900
H424        H  0.52796188  0.83336216  0.55510083     0.36400
C425        C  0.70417043  0.28990614  0.64215459    -0.27900
C426        C  0.70387094  0.31010408  0.67320356     0.01700
C427        C  0.68468204  0.31126977  0.70606976     0.29800
C428        C  0.66697318  0.29171683  0.70902481    -0.19700
C429        C  0.66835672  0.27057561  0.68000724    -0.29100
C430        C  0.68671750  0.27020787  0.64540558     0.43900
C431        C  0.72518258  0.32816914  0.67424919     0.05000
O432        O  0.68389153  0.33069886  0.73705940    -0.57600
H433        H  0.65302626  0.29243997  0.73580043     0.18000
O434        O  0.68843541  0.25024894  0.61562523    -0.64300
H435        H  0.71859842  0.28895221  0.61623899     0.16400
C436        C  0.74993066  0.31902602  0.67932157     0.28700
C437        C  0.76985931  0.33600633  0.68344787    -0.25200
C438        C  0.76580686  0.36242160  0.68254838    -0.24500
C439        C  0.74104849  0.37161274  0.67629111     0.40100
C440        C  0.72094440  0.35449032  0.67244134    -0.26900
O441        O  0.75467138  0.29347880  0.68306020    -0.58800
H442        H  0.78860668  0.32824120  0.68812426     0.15800
O443        O  0.73612530  0.39716012  0.67514404    -0.60300
H444        H  0.70196715  0.36176560  0.66835325     0.14200
H445        H  0.67749135  0.25498663  0.58959952     0.46100
H446        H  0.76223609  0.28844556  0.65361523     0.41400
H447        H  0.73765699  0.40201983  0.64271567     0.44900
H448        H  0.69527232  0.32534132  0.76208458     0.36400
C449        C  0.79728444  0.48857120  0.51318490    -0.27900
C450        C  0.78407013  0.50943020  0.53078030     0.01700
C451        C  0.77472459  0.50824898  0.57541758     0.29800
C452        C  0.78082007  0.48743159  0.60318018    -0.19700
C453        C  0.79660320  0.46790300  0.58711923    -0.29100
C454        C  0.80366619  0.46797288  0.54090348     0.43900
C455        C  0.78395924  0.53336661  0.50430737     0.05000
O456        O  0.76020961  0.52765622  0.59234076    -0.57600
H457        H  0.77472314  0.48759047  0.63827804     0.18000
O458        O  0.81768476  0.44850623  0.52289082    -0.64300
H459        H  0.80432807  0.48906631  0.47866527     0.16400
C460        C  0.79741020  0.55456493  0.52038126     0.28700
C461        C  0.80294006  0.57462810  0.49100099    -0.25200
C462        C  0.79562180  0.57388054  0.44507482    -0.24500
C463        C  0.78027492  0.55365399  0.43009795     0.40100
C464        C  0.77478234  0.53352349  0.45956126    -0.26900
O465        O  0.80714618  0.55490718  0.56361296    -0.58800
H466        H  0.81453961  0.58998584  0.50353314     0.15800
O467        O  0.77254329  0.55205132  0.38571069    -0.60300
H468        H  0.76459677  0.51724814  0.44664589     0.14200
H469        H  0.83517833  0.45500940  0.52135935     0.46100
H470        H  0.82374362  0.54631007  0.56137939     0.41400
H471        H  0.75620895  0.56121052  0.38462437     0.44900
H472        H  0.77051960  0.53578414  0.61639806     0.36400
C473        C  0.24473357  0.52842397  0.58135171    -0.27900
C474        C  0.23561533  0.52822063  0.53663354     0.01700
C475        C  0.22224901  0.54939495  0.52002876     0.29800
C476        C  0.21667261  0.56962582  0.54898894    -0.19700
C477        C  0.22431602  0.56919994  0.59470120    -0.29100
C478        C  0.23947455  0.54885827  0.61025702     0.43900
C479        C  0.23609913  0.50450638  0.50994686     0.05000
O480        O  0.21225085  0.54926445  0.47698811    -0.57600
H481        H  0.20506661  0.58502162  0.53621947     0.18000
O482        O  0.24727480  0.54753294  0.65465396    -0.64300
H483        H  0.25485753  0.51210752  0.59452699     0.16400
C484        C  0.24687052  0.50363833  0.46641782     0.28700
C485        C  0.24125697  0.48347952  0.43719908    -0.25200
C486        C  0.22478825  0.46409087  0.45087089    -0.24500
C487        C  0.21618961  0.46373379  0.49628186     0.40100
C488        C  0.22200770  0.48382364  0.52544751    -0.26900
O489        O  0.26140304  0.52329568  0.45105852    -0.58800
H490        H  0.24833221  0.48407164  0.40272653     0.15800
O491        O  0.20118920  0.44446119  0.51195261    -0.60300
H492        H  0.21385310  0.48416223  0.55916820     0.14200
H493        H  0.26393853  0.55597393  0.65521015     0.46100
H494        H  0.27895517  0.51841294  0.45873589     0.41400
H495        H  0.18378922  0.45138396  0.51155658     0.44900
H496        H  0.22335788  0.56045679  0.45888562     0.36400
C497        C  0.32372388  0.29080246  0.40761269    -0.27900
C498        C  0.32401550  0.31047293  0.37538740     0.01700
C499        C  0.34348747  0.31091326  0.34284866     0.29800
C500        C  0.36087531  0.29088638  0.34066644    -0.19700
C501        C  0.35881104  0.26990876  0.36983983    -0.29100
C502        C  0.34062724  0.27049139  0.40469305     0.43900
C503        C  0.30229855  0.32836820  0.37248535     0.05000
O504        O  0.34478336  0.32994643  0.31115676    -0.57600
H505        H  0.37489299  0.29097639  0.31398297     0.18000
O506        O  0.33837621  0.25076496  0.43483257    -0.64300
H507        H  0.30949499  0.29053422  0.43391102     0.16400
C508        C  0.27748179  0.31893152  0.37167523     0.28700
C509        C  0.25722755  0.33539456  0.36469648    -0.25200
C510        C  0.26093579  0.36152655  0.35812325    -0.24500
C511        C  0.28566484  0.37118143  0.36015969     0.40100
C512        C  0.30608736  0.35463641  0.36739872    -0.26900
O513        O  0.27288169  0.29335557  0.37450397    -0.58800
H514        H  0.23845633  0.32740013  0.36357536     0.15800
O515        O  0.29026334  0.39645329  0.35295576    -0.60300
H516        H  0.32497743  0.36231925  0.36829482     0.14200
H517        H  0.35112921  0.25409295  0.45875776     0.46100
H518        H  0.26514893  0.29073768  0.40478654     0.41400
H519        H  0.29036692  0.40423613  0.38363249     0.44900
H520        H  0.33458956  0.32391996  0.28503721     0.36400
C521        C  0.54068666  0.23799433  0.53179323    -0.27900
C522        C  0.51883144  0.24962082  0.54869526     0.01700
C523        C  0.51836527  0.25824421  0.59396412     0.29800
C524        C  0.53912312  0.25377514  0.62242897    -0.19700
C525        C  0.56004944  0.24024779  0.60625315    -0.29100
C526        C  0.56113529  0.23312916  0.56032396     0.43900
C527        C  0.49578856  0.24849845  0.52060274     0.05000
O528        O  0.49710192  0.26932234  0.61146233    -0.57600
H529        H  0.53798791  0.25891464  0.65801364     0.18000
O530        O  0.58114852  0.21933615  0.54411782    -0.64300
H531        H  0.54112422  0.23084965  0.49727335     0.16400
C532        C  0.49514229  0.25960561  0.47714369     0.28700
C533        C  0.47636646  0.25261995  0.44609882    -0.25200
C534        C  0.45868329  0.23400643  0.45760891    -0.24500
C535        C  0.45808530  0.22446256  0.50225798     0.40100
C536        C  0.47651565  0.23184592  0.53355448    -0.26900
O537        O  0.51351265  0.27634167  0.46416218    -0.58800
H538        H  0.47690745  0.26018352  0.41187338     0.15800
O539        O  0.44054557  0.20672253  0.51471858    -0.60300
H540        H  0.47691448  0.22302356  0.56681783     0.14200
H541        H  0.59417007  0.23207831  0.53647647     0.46100
H542        H  0.52516362  0.26640053  0.44473812     0.41400
H543        H  0.42515633  0.21658727  0.52211913     0.44900
H544        H  0.49883161  0.28766793  0.60469717     0.36400
C545        C  0.68477835  0.03143115  0.75287454    -0.27900
C546        C  0.66031484  0.04104313  0.75898254     0.01700
C547        C  0.64195175  0.02557671  0.77923130     0.29800
C548        C  0.64824773  0.00111566  0.79385737    -0.19700
C549        C  0.67279284  0.99152973  0.78847210    -0.29100
C550        C  0.69104662  0.00677757  0.76713016     0.43900
C551        C  0.65413066  0.06744918  0.74552071     0.05000
O552        O  0.61796104  0.03449370  0.78611264    -0.57600
H553        H  0.63396490  0.98974869  0.81036547     0.18000
O554        O  0.71541964  0.99846362  0.76280094    -0.64300
H555        H  0.69911236  0.04320422  0.73748783     0.16400
C556        C  0.66626428  0.08818640  0.76610805     0.28700
C557        C  0.65949237  0.11301962  0.75418087    -0.25200
C558        C  0.64053160  0.11773118  0.72171849    -0.24500
C559        C  0.62855677  0.09678511  0.70081758     0.40100
C560        C  0.63527294  0.07197866  0.71307389    -0.26900
O561        O  0.68453597  0.08437301  0.79844526    -0.58800
H562        H  0.66909976  0.12863331  0.77066077     0.15800
O563        O  0.61021351  0.10019780  0.66846475    -0.60300
H564        H  0.62579602  0.05615349  0.69697364     0.14200
H565        H  0.71633518  0.99087496  0.73201602     0.46100
H566        H  0.67540079  0.08380015  0.82777413     0.41400
H567        H  0.61928991  0.10046457  0.63905532     0.44900
H568        H  0.61857308  0.04339469  0.81578657     0.36400
C569        C  0.62278388  0.83076005  0.12259277    -0.27900
C570        C  0.64587717  0.84127518  0.10959280     0.01700
C571        C  0.66433111  0.84610218  0.14275907     0.29800
C572        C  0.65935755  0.84100098  0.18845805    -0.19700
C573        C  0.63598595  0.83110269  0.20201846    -0.29100
C574        C  0.61772660  0.82562544  0.16835613     0.43900
C575        C  0.64967210  0.84977454  0.06231511     0.05000
O576        O  0.68655031  0.85761108  0.13117872    -0.57600
H577        H  0.67357705  0.84576465  0.21348426     0.18000
O578        O  0.59481643  0.81548155  0.17965558    -0.64300
H579        H  0.60840688  0.82709268  0.09724519     0.16400
C580        C  0.66937626  0.84008101  0.03551795     0.28700
C581        C  0.67455772  0.85095918  0.99316155    -0.25200
C582        C  0.66019138  0.87152378  0.97692957    -0.24500
C583        C  0.63960973  0.88029371  0.00307517     0.40100
C584        C  0.63448799  0.86933579  0.04523719    -0.26900
O585        O  0.68395463  0.82032181  0.05086141    -0.58800
H586        H  0.69017733  0.84362077  0.97346978     0.15800
O587        O  0.62418775  0.89941822  0.98771525    -0.60300
H588        H  0.61909542  0.87676073  0.06543233     0.14200
H589        H  0.58320865  0.83020177  0.18217990     0.46100
H590        H  0.67491950  0.80476976  0.04125156     0.41400
H591        H  0.63066645  0.91509853  0.00221141     0.44900
H592        H  0.69932994  0.84384724  0.13130517     0.36400
C593        C  0.64783358  0.86632383  0.56349018    -0.27900
C594        C  0.67287975  0.87432636  0.56673453     0.01700
C595        C  0.68711509  0.87761688  0.52702195     0.29800
C596        C  0.67623103  0.87252662  0.48455515    -0.19700
C597        C  0.65100063  0.86462126  0.48115060    -0.29100
C598        C  0.63677984  0.86168543  0.52130639     0.43900
C599        C  0.68363610  0.87855660  0.61230179     0.05000
O600        O  0.71186142  0.88488011  0.52956189    -0.57600
H601        H  0.68750838  0.87500107  0.45426658     0.18000
O602        O  0.61226151  0.85359563  0.52000241    -0.64300
H603        H  0.63672483  0.86374659  0.59398782     0.16400
C604        C  0.69029093  0.90303686  0.62716505     0.28700
C605        C  0.69656581  0.90705743  0.67284975    -0.25200
C606        C  0.69556878  0.88695937  0.70407575    -0.24500
C607        C  0.69012976  0.86229696  0.68863095     0.40100
C608        C  0.68422939  0.85824678  0.64302458    -0.26900
O609        O  0.68915178  0.92334014  0.59805568    -0.58800
H610        H  0.70048518  0.92616645  0.68445740     0.15800
O611        O  0.68953799  0.84219964  0.71823836    -0.60300
H612        H  0.67910146  0.83934473  0.63188347     0.14200
H613        H  0.60191728  0.86927124  0.52179945     0.46100
H614        H  0.67165547  0.92984618  0.60043766     0.41400
H615        H  0.70715409  0.83594976  0.71985218     0.44900
H616        H  0.71195584  0.90306506  0.52087476     0.36400
C617        C  0.51496245  0.85892488  0.79988000    -0.27900
C618        C  0.52788244  0.87936180  0.78025709     0.01700
C619        C  0.51643223  0.89307158  0.74471029     0.29800
C620        C  0.49266006  0.88589406  0.72858955    -0.19700
C621        C  0.48003124  0.86492371  0.74715866    -0.29100
C622        C  0.49125883  0.85162220  0.78358460     0.43900
C623        C  0.55402157  0.88493743  0.79482639     0.05000
O624        O  0.52913892  0.91228961  0.72333040    -0.57600
H625        H  0.48457098  0.89616689  0.70015607     0.18000
O626        O  0.47912145  0.83168305  0.80387835    -0.64300
H627        H  0.52350738  0.84831967  0.82748371     0.16400
C628        C  0.56102326  0.90905722  0.81104185     0.28700
C629        C  0.58611631  0.91385406  0.82304590    -0.25200
C630        C  0.60453982  0.89470557  0.81981307    -0.24500
C631        C  0.59732349  0.87045782  0.80382298     0.40100
C632        C  0.57229531  0.86578480  0.79175782    -0.26900
O633        O  0.54343392  0.92796934  0.81587939    -0.58800
H634        H  0.59104831  0.93251281  0.83563914     0.15800
O635        O  0.61447676  0.85106181  0.79985015    -0.60300
H636        H  0.56717630  0.84714173  0.77928209     0.14200
H637        H  0.48657158  0.81620974  0.79013361     0.46100
H638        H  0.53537089  0.92473973  0.84567067     0.41400
H639        H  0.62195855  0.85313283  0.76923322     0.44900
H640        H  0.52037453  0.92813673  0.73242256     0.36400
C641        C  0.01081619  0.65032390  0.74776556    -0.27900
C642        C  0.03073496  0.66776568  0.75005369     0.01700
C643        C  0.02604867  0.69226929  0.76736473     0.29800
C644        C  0.00192404  0.69894351  0.78216300    -0.19700
C645        C  0.98215340  0.68130599  0.78119267    -0.29100
C646        C  0.98671596  0.65687805  0.76328965     0.43900
C647        C  0.05642510  0.66033583  0.73500464     0.05000
O648        O  0.04514389  0.70960500  0.77144974    -0.57600
H649        H  0.99898890  0.71770042  0.79633323     0.18000
O650        O  0.96788432  0.63915385  0.76126637    -0.64300
H651        H  0.01398387  0.63150764  0.73404275     0.16400
C652        C  0.06844643  0.63840214  0.75215291     0.28700
C653        C  0.09313641  0.63251208  0.73896126    -0.25200
C654        C  0.10641708  0.64861555  0.70963872    -0.24500
C655        C  0.09428755  0.67032726  0.69200099     0.40100
C656        C  0.06944236  0.67585954  0.70430058    -0.26900
O657        O  0.05650518  0.62298374  0.78278064    -0.58800
H658        H  0.10220889  0.61575839  0.75284144     0.15800
O659        O  0.10625938  0.68578352  0.66143665    -0.60300
H660        H  0.06034331  0.69248617  0.69000277     0.14200
H661        H  0.95941371  0.64208276  0.73164486     0.46100
H662        H  0.06062305  0.63016773  0.81303806     0.41400
H663        H  0.11265426  0.70025699  0.67960981     0.44900
H664        H  0.05297480  0.70609258  0.80144100     0.36400
C665        C  0.84121446  0.81392671  0.84124886    -0.27900
C666        C  0.82284430  0.81290773  0.87545922     0.01700
C667        C  0.82342249  0.79241054  0.90639056     0.29800
C668        C  0.84059632  0.77246375  0.90039862    -0.19700
C669        C  0.85795898  0.77273961  0.86446292    -0.29100
C670        C  0.85874455  0.79420443  0.83578119     0.43900
C671        C  0.80117175  0.83101290  0.87442797     0.05000
O672        O  0.80652020  0.79111093  0.94147915    -0.57600
H673        H  0.83986368  0.75636806  0.92328033     0.18000
O674        O  0.87551015  0.79545937  0.80048265    -0.64300
H675        H  0.84102123  0.82924327  0.81672519     0.16400
C676        C  0.80429822  0.85745794  0.86919656     0.28700
C677        C  0.78312018  0.87333713  0.86344867    -0.25200
C678        C  0.75863911  0.86319219  0.86239479    -0.24500
C679        C  0.75567219  0.83680538  0.86946161     0.40100
C680        C  0.77669111  0.82114820  0.87504345    -0.26900
O681        O  0.82790254  0.86796314  0.87053807    -0.58800
H682        H  0.78594363  0.89351955  0.85876386     0.15800
O683        O  0.73224730  0.82591967  0.87117656    -0.60300
H684        H  0.77373965  0.80089777  0.87837102     0.14200
H685        H  0.86670697  0.78764117  0.77424014     0.46100
H686        H  0.83131580  0.87376145  0.83909356     0.41400
H687        H  0.72934856  0.81880369  0.84040524     0.44900
H688        H  0.81353165  0.80222327  0.96554943     0.36400
C689        C  0.85006922  0.67730685  0.13972932    -0.27900
C690        C  0.84356368  0.65828038  0.10873875     0.01700
C691        C  0.83068366  0.63663372  0.12398983     0.29800
C692        C  0.82498604  0.63396720  0.17022382    -0.19700
C693        C  0.83219186  0.65269564  0.20166994    -0.29100
C694        C  0.84442714  0.67474417  0.18577580     0.43900
C695        C  0.85116221  0.66116145  0.06088381     0.05000
O696        O  0.82404156  0.61782660  0.09411514    -0.57600
H697        H  0.81564771  0.61687342  0.18165633     0.18000
O698        O  0.85130486  0.69380799  0.21497562    -0.64300
H699        H  0.85997731  0.69406192  0.12821341     0.16400
C700        C  0.84038002  0.68022324  0.03354943     0.28700
C701        C  0.84950276  0.68439529  0.98963776    -0.25200
C702        C  0.86995749  0.67028660  0.97316840    -0.24500
C703        C  0.88046919  0.65087381  0.00027423     0.40100
C704        C  0.87093421  0.64632368  0.04377969    -0.26900
O705        O  0.82100638  0.69491918  0.04967970    -0.58800
H706        H  0.84125370  0.69936251  0.96912011     0.15800
O707        O  0.90020333  0.63644539  0.98473708    -0.60300
H708        H  0.87948291  0.63173809  0.06477031     0.14200
H709        H  0.83646483  0.70524715  0.21649411     0.46100
H710        H  0.82907821  0.71068522  0.06086692     0.41400
H711        H  0.89231026  0.62223594  0.96786609     0.44900
H712        H  0.80690271  0.62246621  0.08345036     0.36400
C713        C  0.86369825  0.66936677  0.56020708    -0.27900
C714        C  0.86264475  0.69579408  0.56429166     0.01700
C715        C  0.85620001  0.71067039  0.52635934     0.29800
C716        C  0.85150908  0.69892928  0.48437640    -0.19700
C717        C  0.85327069  0.67238035  0.47992632    -0.29100
C718        C  0.85897004  0.65761614  0.51864308     0.43900
C719        C  0.86919619  0.70705087  0.60853431     0.05000
O720        O  0.85552868  0.73662388  0.52954974    -0.57600
H721        H  0.84721205  0.71061529  0.45505712     0.18000
O722        O  0.86011764  0.63164029  0.51629318    -0.64300
H723        H  0.86842272  0.65778293  0.58948074     0.16400
C724        C  0.85033790  0.71382740  0.63967332     0.28700
C725        C  0.85670974  0.71849678  0.68511606    -0.25200
C726        C  0.88184925  0.71646572  0.69995981    -0.24500
C727        C  0.90087922  0.71138075  0.66772998     0.40100
C728        C  0.89441420  0.70665651  0.62248604    -0.26900
O729        O  0.82554938  0.71466162  0.62650174    -0.58800
H730        H  0.84182971  0.72265231  0.70913632     0.15800
O731        O  0.92569294  0.70939678  0.68043352    -0.60300
H732        H  0.90901620  0.70123488  0.59868818     0.14200
H733        H  0.84280551  0.62581593  0.52316120     0.46100
H734        H  0.81909940  0.69723609  0.63143333     0.41400
H735        H  0.92816360  0.69131968  0.68881868     0.44900
H736        H  0.83801031  0.74080547  0.53849886     0.36400
C737        C  0.85650434  0.59095498  0.75420815    -0.27900
C738        C  0.86563989  0.57004304  0.77881977     0.01700
C739        C  0.88168639  0.57401945  0.81605115     0.29800
C740        C  0.88833196  0.59868415  0.82856627    -0.19700
C741        C  0.87899787  0.61986011  0.80457504    -0.29100
C742        C  0.86300203  0.61576837  0.76685907     0.43900
C743        C  0.85980581  0.54399484  0.76377682     0.05000
O744        O  0.89161896  0.55382503  0.83951446    -0.57600
H745        H  0.90071165  0.60118187  0.85753604     0.18000
O746        O  0.85369290  0.63574386  0.74201146    -0.64300
H747        H  0.84440620  0.58798579  0.72499117     0.16400
C748        C  0.84225509  0.52883226  0.78692935     0.28700
C749        C  0.83772215  0.50386394  0.77244854    -0.25200
C750        C  0.85058677  0.49371824  0.73482737    -0.24500
C751        C  0.86856159  0.50908607  0.71235807     0.40100
C752        C  0.87281370  0.53395953  0.72671043    -0.26900
O753        O  0.82944266  0.53829645  0.82363281    -0.58800
H754        H  0.82382940  0.49262007  0.79021559     0.15800
O755        O  0.88196650  0.50022534  0.67583853    -0.60300
H756        H  0.88656474  0.54544586  0.70902830     0.14200
H757        H  0.86694420  0.63963727  0.71938952     0.46100
H758        H  0.81373951  0.54567926  0.81088567     0.41400
H759        H  0.89707918  0.49190878  0.68907822     0.44900
H760        H  0.87971513  0.55072610  0.86480337     0.36400
C761        C  0.06230047  0.40370446  0.31862474    -0.27900
C762        C  0.05663520  0.38044426  0.29775352     0.01700
C763        C  0.07629611  0.36336240  0.28785858     0.29800
C764        C  0.10105100  0.36935359  0.29991144    -0.19700
C765        C  0.10675291  0.39235534  0.32171484    -0.29100
C766        C  0.08709681  0.40971745  0.33073654     0.43900
C767        C  0.03035837  0.37467966  0.28437751     0.05000
O768        O  0.07162926  0.34137371  0.26431148    -0.57600
H769        H  0.11587787  0.35593127  0.29180712     0.18000
O770        O  0.09177460  0.43247019  0.35171924    -0.64300
H771        H  0.04737316  0.41715078  0.32596534     0.16400
C772        C  0.01857784  0.35193984  0.29768854     0.28700
C773        C  0.99472807  0.34581719  0.28062945    -0.25200
C774        C  0.98196709  0.36244711  0.25114312    -0.24500
C775        C  0.99327349  0.38588674  0.23994112     0.40100
C776        C  0.01722434  0.39178546  0.25656162    -0.26900
O777        O  0.03031414  0.33545793  0.32700948    -0.58800
H778        H  0.98629458  0.32790516  0.29020480     0.15800
O779        O  0.98156823  0.40284264  0.21142803    -0.60300
H780        H  0.02596079  0.40943623  0.24631230     0.14200
H781        H  0.09054184  0.42889360  0.38472241     0.46100
H782        H  0.02652789  0.34204087  0.35781583     0.41400
H783        H  0.98708259  0.39803042  0.18041843     0.44900
H784        H  0.07510857  0.32737855  0.28600641     0.36400
C785        C  0.87683243  0.38461343  0.98075028    -0.27900
C786        C  0.85198740  0.37822991  0.97013222     0.01700
C787        C  0.83622594  0.36800767  0.00362683     0.29800
C788        C  0.84575999  0.36345860  0.04723836    -0.19700
C789        C  0.87095922  0.36913419  0.05769202    -0.29100
C790        C  0.88634344  0.38040138  0.02419541     0.43900
C791        C  0.84363077  0.38075908  0.92287540     0.05000
O792        O  0.81194312  0.36129137  0.99338370    -0.57600
H793        H  0.83363855  0.35489224  0.07247101     0.18000
O794        O  0.91080256  0.38712462  0.03320984    -0.64300
H795        H  0.88899350  0.39261559  0.95495599     0.16400
C796        C  0.82861615  0.40129585  0.90880654     0.28700
C797        C  0.82361948  0.40485710  0.86251903    -0.25200
C798        C  0.83375791  0.38817455  0.83003943    -0.24500
C799        C  0.84789137  0.36691226  0.84484931     0.40100
C800        C  0.85290057  0.36354372  0.89090142    -0.26900
O801        O  0.81948986  0.41837734  0.93987352    -0.58800
H802        H  0.81267160  0.42122024  0.85195820     0.15800
O803        O  0.85738204  0.34952591  0.81466736    -0.60300
H804        H  0.86451246  0.34768243  0.90171524     0.14200
H805        H  0.90974324  0.40427477  0.04697883     0.46100
H806        H  0.83293762  0.43126211  0.94330813     0.41400
H807        H  0.84341509  0.33748132  0.80894534     0.44900
H808        H  0.80161156  0.37637787  0.00116890     0.36400
C809        C  0.85178784  0.33531861  0.50091226    -0.27900
C810        C  0.86829803  0.34711679  0.47050555     0.01700
C811        C  0.87900042  0.37063446  0.48169189     0.29800
C812        C  0.87343619  0.38194506  0.52318140    -0.19700
C813        C  0.85724045  0.37012282  0.55433685    -0.29100
C814        C  0.84619137  0.34664275  0.54272149     0.43900
C815        C  0.87280137  0.33615857  0.42535868     0.05000
O816        O  0.89389058  0.38331065  0.45117095    -0.57600
H817        H  0.88189323  0.40015207  0.53075823     0.18000
O818        O  0.83005589  0.33453414  0.57179999    -0.64300
H819        H  0.84314737  0.31737909  0.49204660     0.16400
C820        C  0.89735155  0.33028388  0.41096269     0.28700
C821        C  0.90193891  0.32539872  0.36513807    -0.25200
C822        C  0.88221919  0.32635610  0.33316305    -0.24500
C823        C  0.85730435  0.33021523  0.34855009     0.40100
C824        C  0.85279061  0.33492038  0.39447930    -0.26900
O825        O  0.91717392  0.33081974  0.44094208    -0.58800
H826        H  0.92118786  0.32218798  0.35439420     0.15800
O827        O  0.83730083  0.33033900  0.31894527    -0.60300
H828        H  0.83379240  0.33925528  0.40547785     0.14200
H829        H  0.81305369  0.34100358  0.56377835     0.46100
H830        H  0.91672155  0.31421116  0.45675873     0.41400
H831        H  0.83413243  0.34850025  0.31197173     0.44900
H832        H  0.91130221  0.38175609  0.46316126     0.36400
C833        C  0.85355897  0.45260568  0.26685576    -0.27900
C834        C  0.86599444  0.47335215  0.24705647     0.01700
C835        C  0.88479472  0.46863706  0.21450018     0.29800
C836        C  0.89107731  0.44359353  0.20271291    -0.19700
C837        C  0.87875871  0.42270621  0.22260245    -0.29100
C838        C  0.85971138  0.42754198  0.25492893     0.43900
C839        C  0.86039870  0.49957645  0.26329377     0.05000
O840        O  0.89811582  0.48833052  0.19590508    -0.57600
H841        H  0.90582605  0.44060244  0.17790633     0.18000
O842        O  0.84685116  0.40802590  0.27505185    -0.64300
H843        H  0.83905296  0.45588030  0.29203057     0.16400
C844        C  0.85260013  0.51915938  0.23361739     0.28700
C845        C  0.84722405  0.54351675  0.25070485    -0.25200
C846        C  0.84961922  0.54885151  0.29734796    -0.24500
C847        C  0.85749311  0.52915139  0.32683734     0.40100
C848        C  0.86260923  0.50489495  0.30978516    -0.26900
O849        O  0.84976442  0.51462185  0.18802013    -0.58800
H850        H  0.84113945  0.55824553  0.22740724     0.15800
O851        O  0.85922362  0.53301420  0.37283739    -0.60300
H852        H  0.86844336  0.49009026  0.33315245     0.14200
H853        H  0.85661766  0.40382484  0.30284470     0.46100
H854        H  0.83229503  0.50831172  0.18447747     0.41400
H855        H  0.87726070  0.53664509  0.37868734     0.44900
H856        H  0.89271406  0.48916961  0.16364888     0.36400
C857        C  0.74384253  0.00986824  0.96075359    -0.27900
C858        C  0.73606930  0.00874823  0.00617463     0.01700
C859        C  0.72322541  0.98710877  0.02182352     0.29800
C860        C  0.71681725  0.96780059  0.99137346    -0.19700
C861        C  0.72306588  0.96967965  0.94520733    -0.29100
C862        C  0.73742871  0.99058640  0.93024298     0.43900
C863        C  0.73641435  0.03205939  0.03401444     0.05000
O864        O  0.71435179  0.98601533  0.06552010    -0.57600
H865        H  0.70566785  0.95199932  0.00346961     0.18000
O866        O  0.74356984  0.99345008  0.88527710    -0.64300
H867        H  0.75341714  0.02659394  0.94823680     0.16400
C868        C  0.74733289  0.03262357  0.07758246     0.28700
C869        C  0.74187882  0.05283427  0.10703396    -0.25200
C870        C  0.72529631  0.07229775  0.09351447    -0.24500
C871        C  0.71680540  0.07300350  0.04801304     0.40100
C872        C  0.72229383  0.05292278  0.01884102    -0.26900
O873        O  0.76276981  0.01321547  0.09178057    -0.58800
H874        H  0.74910611  0.05221404  0.14147696     0.15800
O875        O  0.70151851  0.09221774  0.03256149    -0.60300
H876        H  0.71397658  0.05282360  0.98516203     0.14200
H877        H  0.72921086  0.00281477  0.87152019     0.46100
H878        H  0.75380554  0.00487264  0.11722286     0.41400
H879        H  0.71308784  0.10626436  0.02462968     0.44900
H880        H  0.72470530  0.97283633  0.08082815     0.36400
C881        C  0.64218497  0.01360332  0.25814886    -0.27900
C882        C  0.65991719  0.99871623  0.28130380     0.01700
C883        C  0.68399209  0.00871981  0.29023172     0.29800
C884        C  0.69020618  0.03322148  0.27520138    -0.19700
C885        C  0.67271080  0.04785791  0.25055148    -0.29100
C886        C  0.64843179  0.03783790  0.24245448     0.43900
C887        C  0.65314499  0.97253477  0.29480196     0.05000
O888        O  0.70168560  0.99450177  0.31287841    -0.57600
H889        H  0.70899690  0.04040838  0.28141299     0.18000
O890        O  0.63050695  0.05171863  0.21964831    -0.64300
H891        H  0.62356515  0.00614176  0.25124936     0.16400
C892        C  0.63498295  0.96811177  0.32850946     0.28700
C893        C  0.62833622  0.94321356  0.34001621    -0.25200
C894        C  0.63931073  0.92228214  0.31777078    -0.24500
C895        C  0.65723256  0.92689555  0.28323830     0.40100
C896        C  0.66403309  0.95183760  0.27221772    -0.26900
O897        O  0.62414221  0.98804031  0.35127116    -0.60400
H898        H  0.61462421  0.94034674  0.36669971     0.15800
O899        O  0.66786509  0.90728585  0.25928049    -0.60300
H900        H  0.67766204  0.95506525  0.24550771     0.14200
H901        H  0.63061717  0.04506342  0.18812043     0.46100
H902        H  0.60801701  0.99134525  0.33521736     0.41400
H903        H  0.68402928  0.90360354  0.27494541     0.44900
H904        H  0.69906907  0.99837904  0.34549996     0.36400
C905        C  0.84370353  0.22645524  0.19694883    -0.27900
C906        C  0.82326190  0.22789375  0.16655915     0.01700
C907        C  0.82189900  0.24887923  0.13670277     0.29800
C908        C  0.83909938  0.26887080  0.14058651    -0.19700
C909        C  0.85853254  0.26825006  0.17306498    -0.29100
C910        C  0.86135920  0.24620597  0.20002383     0.43900
C911        C  0.80187843  0.20949851  0.17012630     0.05000
O912        O  0.80317795  0.25055808  0.10462472    -0.57600
H913        H  0.83677032  0.28527647  0.11875324     0.18000
O914        O  0.88054019  0.24420695  0.23114329    -0.64300
H915        H  0.84525691  0.21070470  0.22040973     0.16400
C916        C  0.80543553  0.18298552  0.17430316     0.28700
C917        C  0.78457338  0.16684923  0.18089452    -0.25200
C918        C  0.75995027  0.17672967  0.18344807    -0.24500
C919        C  0.75653863  0.20316999  0.17734676     0.40100
C920        C  0.77723355  0.21910616  0.17184521    -0.26900
O921        O  0.82908539  0.17262128  0.17072351    -0.58800
H922        H  0.78774692  0.14663548  0.18459086     0.15800
O923        O  0.73298837  0.21396214  0.17723659    -0.60300
H924        H  0.77386365  0.23935759  0.16972484     0.14200
H925        H  0.87355361  0.25105482  0.25987550     0.46100
H926        H  0.83332930  0.16630934  0.20156960     0.41400
H927        H  0.72699687  0.21258988  0.14537667     0.44900
H928        H  0.80956444  0.24091355  0.07809797     0.36400
C929        C  0.67259017  0.20284088  0.90121700    -0.27900
C930        C  0.65264955  0.19965060  0.93164359     0.01700
C931        C  0.62775651  0.20318389  0.91676931     0.29800
C932        C  0.62294513  0.20884645  0.87120386    -0.19700
C933        C  0.64278172  0.21057270  0.83975872    -0.29100
C934        C  0.66785117  0.20833323  0.85550032     0.43900
C935        C  0.65771485  0.18899821  0.97685519     0.05000
O936        O  0.60800588  0.20025291  0.94625434    -0.57600
H937        H  0.60354003  0.21059327  0.86012354     0.18000
O938        O  0.68783506  0.21045851  0.82634651    -0.64300
H939        H  0.69182103  0.19995765  0.91256813     0.16400
C940        C  0.65615500  0.16265825  0.98333686     0.28700
C941        C  0.66044340  0.15234924  0.02626675    -0.25200
C942        C  0.66668237  0.16802472  0.06314973    -0.24500
C943        C  0.66847243  0.19449522  0.05649505     0.40100
C944        C  0.66400280  0.20482576  0.01335532    -0.26900
O945        O  0.65016392  0.14688764  0.94785293    -0.58800
H946        H  0.65908745  0.13197359  0.03060448     0.15800
O947        O  0.67412131  0.21044251  0.09189792    -0.60300
H948        H  0.66520227  0.22516404  0.00842891     0.14200
H949        H  0.69107514  0.22893679  0.82397609     0.46100
H950        H  0.66650630  0.14241446  0.93366075     0.41400
H951        H  0.65789302  0.21343295  0.10766095     0.44900
H952        H  0.60290481  0.18223554  0.94327891     0.36400
C953        C  0.64684485  0.15756736  0.48470044    -0.27900
C954        C  0.67134008  0.16556466  0.47481365     0.01700
C955        C  0.68529596  0.17888338  0.50754885     0.29800
C956        C  0.67486568  0.18360561  0.55027589    -0.19700
C957        C  0.65033398  0.17552974  0.56050293    -0.29100
C958        C  0.63621376  0.16256844  0.52712503     0.43900
C959        C  0.68143374  0.16123733  0.42907830     0.05000
O960        O  0.70894464  0.18768833  0.49777745    -0.57600
H961        H  0.68585403  0.19388367  0.57526619     0.18000
O962        O  0.61210879  0.15457826  0.53558950    -0.64300
H963        H  0.63587167  0.14764655  0.45921547     0.16400
C964        C  0.69028835  0.13718843  0.41576602     0.28700
C965        C  0.69714072  0.13291066  0.37047107    -0.25200
C966        C  0.69453418  0.15233013  0.33816274    -0.24500
C967        C  0.68664471  0.17668973  0.35220994     0.40100
C968        C  0.68036263  0.18102219  0.39753084    -0.26900
O969        O  0.69184378  0.11773383  0.44661739    -0.58800
H970        H  0.70306118  0.11408375  0.36011744     0.15800
O971        O  0.68487659  0.19634250  0.32173444    -0.60300
H972        H  0.67367548  0.19962014  0.40773644     0.14200
H973        H  0.61398982  0.13755534  0.54959867     0.46100
H974        H  0.67565639  0.10851712  0.44382716     0.41400
H975        H  0.66668102  0.19788173  0.31445638     0.44900
H976        H  0.72041824  0.17320704  0.50400617     0.36400
C977        C  0.57048558  0.17370299  0.22630058    -0.27900
C978        C  0.55760125  0.15606857  0.25326047     0.01700
C979        C  0.56895098  0.13233163  0.26225823     0.29800
C980        C  0.59299709  0.12684492  0.24513457    -0.19700
C981        C  0.60622272  0.14497435  0.21969407    -0.29100
C982        C  0.59454850  0.16841592  0.20978908     0.43900
C983        C  0.53256919  0.16304005  0.27206937     0.05000
O984        O  0.55701678  0.11464436  0.28867935    -0.57600
H985        H  0.60164489  0.10871437  0.25305348     0.18000
O986        O  0.60647025  0.18638786  0.18394179    -0.64300
H987        H  0.56184298  0.19178539  0.21803528     0.16400
C988        C  0.52903979  0.18636267  0.29477022     0.28700
C989        C  0.50513305  0.19336898  0.31015010    -0.25200
C990        C  0.48449546  0.17710905  0.30455418    -0.24500
C991        C  0.48799293  0.15363620  0.28247977     0.40100
C992        C  0.51185853  0.14682184  0.26619766    -0.26900
O993        O  0.54893757  0.20232639  0.30268137    -0.58800
H994        H  0.50288236  0.21130376  0.32773918     0.15800
O995        O  0.46817225  0.13737704  0.27611495    -0.60300
H996        H  0.51409780  0.12898696  0.24833126     0.14200
H997        H  0.60238655  0.18196734  0.15201058     0.46100
H998        H  0.55596767  0.19693293  0.33241857     0.41400
H999        H  0.46066396  0.14233738  0.24651449     0.44900
H1000       H  0.56280753  0.11806924  0.32014426     0.36400
C1001       C  0.39047732  0.07125391  0.31091784    -0.27900
C1002       C  0.36754078  0.06732078  0.28813881     0.01700
C1003       C  0.35153337  0.08826356  0.28038807     0.29800
C1004       C  0.35850457  0.11253158  0.29531927    -0.19700
C1005       C  0.38138913  0.11651872  0.31845031    -0.29100
C1006       C  0.39739555  0.09547639  0.32623340     0.43900
C1007       C  0.36059805  0.04136815  0.27240702     0.05000
O1008       O  0.32904721  0.08524662  0.25802269    -0.57600
H1009       H  0.34575699  0.12825769  0.28911551     0.18000
O1010       O  0.42012775  0.09837981  0.34783069    -0.64300
H1011       H  0.40299829  0.05537744  0.31736754     0.16400
C1012       C  0.37664537  0.02746655  0.24358124     0.28700
C1013       C  0.36969352  0.00320057  0.22866796    -0.25200
C1014       C  0.34685266  0.99208918  0.24235324    -0.24500
C1015       C  0.33080762  0.00602728  0.27131364     0.40100
C1016       C  0.33775918  0.03037248  0.28614659    -0.26900
O1017       O  0.39861519  0.03796079  0.22802228    -0.58800
H1018       H  0.38224509  0.99310376  0.20595585     0.15800
O1019       O  0.30801618  0.99637500  0.28449218    -0.60300
H1020       H  0.32520025  0.04076521  0.30840372     0.14200
H1021       H  0.41689968  0.09399228  0.38006114     0.46100
H1022       H  0.41224862  0.02942206  0.24539165     0.41400
H1023       H  0.29601491  0.00148127  0.26024926     0.44900
H1024       H  0.33297411  0.08791504  0.22545142     0.36400
C1025       C  0.38094478  0.86348776  0.99501540    -0.27900
C1026       C  0.36473515  0.84489803  0.97781367     0.01700
C1027       C  0.34447287  0.83648208  0.00462172     0.29800
C1028       C  0.34019623  0.84745828  0.04743997    -0.19700
C1029       C  0.35573626  0.86707791  0.06359974    -0.29100
C1030       C  0.37661371  0.87460693  0.03724390     0.43900
C1031       C  0.36866316  0.83618062  0.93053750     0.05000
O1032       O  0.32918438  0.81725398  0.98959795    -0.57600
H1033       H  0.32433492  0.84105205  0.06743094     0.18000
O1034       O  0.39317823  0.89264351  0.05256102    -0.64300
H1035       H  0.39669159  0.87006107  0.97486974     0.16400
C1036       C  0.35018961  0.84051433  0.89703945     0.28700
C1037       C  0.35599811  0.83692801  0.85117965    -0.25200
C1038       C  0.38034877  0.82954766  0.83764107    -0.24500
C1039       C  0.39853280  0.82420805  0.87146831     0.40100
C1040       C  0.39253896  0.82741115  0.91739072    -0.26900
O1041       O  0.32687848  0.84977867  0.90845409    -0.58800
H1042       H  0.34162928  0.84113951  0.82606216     0.15800
O1043       O  0.42236802  0.81635555  0.86021228    -0.60300
H1044       H  0.40697627  0.82411830  0.94283716     0.14200
H1045       H  0.38791207  0.90865581  0.03750495     0.46100
H1046       H  0.32885182  0.86848092  0.90957345     0.41400
H1047       H  0.43268191  0.83201950  0.85992270     0.44900
H1048       H  0.31239690  0.82511902  0.98471583     0.36400
C1049       C  0.36532463  0.86543590  0.47616483    -0.27900
C1050       C  0.34006498  0.87299302  0.47389471     0.01700
C1051       C  0.32622371  0.87595620  0.51415965     0.29800
C1052       C  0.33781972  0.87119600  0.55622570    -0.19700
C1053       C  0.36336220  0.86399799  0.55864014    -0.29100
C1054       C  0.37706653  0.86117143  0.51788149     0.43900
C1055       C  0.32902272  0.87769333  0.42865421     0.05000
O1056       O  0.30126809  0.88271831  0.51256874    -0.57600
H1057       H  0.32687481  0.87347953  0.58697294     0.18000
O1058       O  0.40183470  0.85373048  0.51814822    -0.64300
H1059       H  0.37613502  0.86310917  0.44523553     0.16400
C1060       C  0.32331850  0.90249781  0.41406666     0.28700
C1061       C  0.31873097  0.90721260  0.36789446    -0.25200
C1062       C  0.32006331  0.88739069  0.33614290    -0.24500
C1063       C  0.32394940  0.86235163  0.35138032     0.40100
C1064       C  0.32829508  0.85765095  0.39740659    -0.26900
O1065       O  0.32460989  0.92247675  0.44384129    -0.58800
H1066       H  0.31581816  0.92657098  0.35654534     0.15800
O1067       O  0.32386319  0.84241282  0.32137413    -0.60300
H1068       H  0.33248137  0.83846221  0.40842193     0.14200
H1069       H  0.41164383  0.86967694  0.51605957     0.46100
H1070       H  0.30686239  0.92726370  0.44994281     0.41400
H1071       H  0.34186019  0.83850419  0.31561487     0.44900
H1072       H  0.30067647  0.90061858  0.52293124     0.36400
C1073       C  0.50118133  0.89132862  0.28547449    -0.27900
C1074       C  0.48875604  0.87454096  0.25617373     0.01700
C1075       C  0.50103681  0.85220061  0.24205310     0.29800
C1076       C  0.52509486  0.84646173  0.25877463    -0.19700
C1077       C  0.53715973  0.86273628  0.28971541    -0.29100
C1078       C  0.52511588  0.88558005  0.30241935     0.43900
C1079       C  0.46265618  0.88032278  0.24200928     0.05000
O1080       O  0.48987370  0.83625142  0.21115110    -0.57600
H1081       H  0.53415427  0.82902493  0.24798643     0.18000
O1082       O  0.53610766  0.90207162  0.33253396    -0.64300
H1083       H  0.49190109  0.90860463  0.29649491     0.16400
C1084       C  0.44289395  0.86354632  0.25212130     0.28700
C1085       C  0.41823306  0.86973527  0.23971653    -0.25200
C1086       C  0.41270128  0.89282280  0.21782521    -0.24500
C1087       C  0.43252671  0.90975986  0.20823265     0.40100
C1088       C  0.45723864  0.90346870  0.22051934    -0.26900
O1089       O  0.44741294  0.84126647  0.27489159    -0.58800
H1090       H  0.40334434  0.85646465  0.24774616     0.15800
O1091       O  0.42810005  0.93236731  0.18649690    -0.60300
H1092       H  0.47229530  0.91663442  0.21295718     0.14200
H1093       H  0.53056967  0.89631656  0.36299258     0.46100
H1094       H  0.44587427  0.84559132  0.30756246     0.41400
H1095       H  0.42912958  0.92838815  0.15361371     0.44900
H1096       H  0.48617089  0.82041764  0.22806248     0.36400
C1097       C  0.04453155  0.72913310  0.01788088    -0.27900
C1098       C  0.02411191  0.74435507  0.03085111     0.01700
C1099       C  0.02391103  0.75565776  0.07413543     0.29800
C1100       C  0.04321796  0.75014051  0.10517920    -0.19700
C1101       C  0.06235566  0.73295958  0.09349462    -0.29100
C1102       C  0.06353083  0.72326920  0.04897943     0.43900
C1103       C  0.00124304  0.74359394  0.00259598     0.05000
O1104       O  0.00388903  0.77029392  0.08759961    -0.57600
H1105       H  0.04202353  0.75746376  0.13951441     0.18000
O1106       O  0.08202548  0.70635672  0.03678817    -0.64300
H1107       H  0.04466235  0.72011925  0.98477300     0.16400
C1108       C  0.99980904  0.75648818  0.96084782     0.28700
C1109       C  0.98013821  0.75110165  0.93050324    -0.25200
C1110       C  0.96248962  0.73222299  0.94095095    -0.24500
C1111       C  0.96334722  0.72021415  0.98364847     0.40100
C1112       C  0.98252190  0.72611331  0.01428139    -0.26900
O1113       O  0.01808732  0.77351202  0.94875923    -0.58800
H1114       H  0.97979445  0.76022819  0.89750968     0.15800
O1115       O  0.94647649  0.70151166  0.99457491    -0.60300
H1116       H  0.98376318  0.71578022  0.04606652     0.14200
H1117       H  0.09669600  0.71694879  0.02838342     0.46100
H1118       H  0.03080039  0.76343039  0.93189613     0.41400
H1119       H  0.93075157  0.71056481  0.00291296     0.44900
H1120       H  0.00790573  0.78768790  0.07706240     0.36400
C1121       C  0.00252731  0.68517171  0.29169939    -0.27900
C1122       C  0.99215962  0.66149020  0.28083116     0.01700
C1123       C  0.00620467  0.64429371  0.25449662     0.29800
C1124       C  0.03008421  0.65113004  0.23857914    -0.19700
C1125       C  0.04033821  0.67510017  0.24848517    -0.29100
C1126       C  0.02642252  0.69200037  0.27608867     0.43900
C1127       C  0.96611327  0.65564845  0.29512602     0.05000
O1128       O  0.99601386  0.62150190  0.24157538    -0.57600
H1129       H  0.04018770  0.63790675  0.21706506     0.18000
O1130       O  0.03562196  0.71550143  0.28717951    -0.64300
H1131       H  0.99188097  0.69855378  0.31204603     0.16400
C1132       C  0.96073101  0.63478158  0.32334594     0.28700
C1133       C  0.93589459  0.63007877  0.33685848    -0.25200
C1134       C  0.91623224  0.64627129  0.32319573    -0.24500
C1135       C  0.92166146  0.66692560  0.29429166     0.40100
C1136       C  0.94642637  0.67153502  0.28078121    -0.26900
O1137       O  0.97967284  0.61923739  0.33873764    -0.58800
H1138       H  0.93211730  0.61415149  0.35907944     0.15800
O1139       O  0.90289532  0.68263059  0.27863997    -0.60300
H1140       H  0.95028716  0.68752144  0.25872135     0.14200
H1141       H  0.04615822  0.71272374  0.31462045     0.46100
H1142       H  0.98591735  0.62738189  0.36696031     0.41400
H1143       H  0.89643637  0.67429552  0.25075274     0.44900
H1144       H  0.00518554  0.60846667  0.25949628     0.36400
C1145       C  0.18380608  0.80668869  0.21397895    -0.27900
C1146       C  0.19693841  0.81111028  0.17337289     0.01700
C1147       C  0.19260320  0.79492621  0.13590058     0.29800
C1148       C  0.17662656  0.77399684  0.14026400    -0.19700
C1149       C  0.16406188  0.76930033  0.18120726    -0.29100
C1150       C  0.16735592  0.78611294  0.21796617     0.43900
C1151       C  0.21724618  0.83050756  0.17230514     0.05000
O1152       O  0.20444650  0.79897103  0.09519044    -0.57600
H1153       H  0.17419808  0.76125776  0.11168487     0.18000
O1154       O  0.15569502  0.78181238  0.25879569    -0.64300
H1155       H  0.18725193  0.81842100  0.24353861     0.16400
C1156       C  0.21369325  0.85536688  0.18911844     0.28700
C1157       C  0.23422310  0.87209587  0.19218294    -0.25200
C1158       C  0.25843636  0.86420167  0.17922282    -0.24500
C1159       C  0.26161013  0.83981689  0.16023369     0.40100
C1160       C  0.24123891  0.82325747  0.15720539    -0.26900
O1161       O  0.19022393  0.86349554  0.20217114    -0.58800
H1162       H  0.23138412  0.89083766  0.20645657     0.15800
O1163       O  0.28462371  0.83198387  0.14423520    -0.60300
H1164       H  0.24452318  0.80424595  0.14447139     0.14200
H1165       H  0.16678997  0.76968644  0.27519179     0.46100
H1166       H  0.19104819  0.86513713  0.23571760     0.41400
H1167       H  0.29157050  0.82062571  0.16808400     0.44900
H1168       H  0.19471013  0.81273889  0.08024304     0.36400
C1169       C  0.19597325  0.63916069  0.91021377    -0.27900
C1170       C  0.18495999  0.66202013  0.92425681     0.01700
C1171       C  0.18075033  0.68156195  0.89272964     0.29800
C1172       C  0.18641219  0.67766189  0.84702765    -0.19700
C1173       C  0.19638565  0.65437484  0.83232293    -0.29100
C1174       C  0.20198132  0.63531995  0.86450309     0.43900
C1175       C  0.17524774  0.66446401  0.97062763     0.05000
O1176       O  0.17014417  0.70412947  0.90606494    -0.57600
H1177       H  0.18220864  0.69257829  0.82278386     0.18000
O1178       O  0.21131672  0.61218721  0.85121712    -0.64300
H1179       H  0.19903482  0.62397651  0.93446481     0.16400
C1180       C  0.15187973  0.65377629  0.98181589     0.28700
C1181       C  0.14154940  0.65806225  0.02466194    -0.25200
C1182       C  0.15454290  0.67259593  0.05705099    -0.24500
C1183       C  0.17821938  0.68293829  0.04593315     0.40100
C1184       C  0.18830672  0.67901031  0.00265433    -0.26900
O1185       O  0.13857925  0.63998114  0.95039073    -0.58800
H1186       H  0.12336794  0.64992580  0.03262066     0.15800
O1187       O  0.19097978  0.69800959  0.07616327    -0.60300
H1188       H  0.20615192  0.68759817  0.99381731     0.14200
H1189       H  0.22986994  0.61374183  0.85386608     0.46100
H1190       H  0.14431664  0.62219864  0.95451957     0.41400
H1191       H  0.20348943  0.68663307  0.09086081     0.44900
H1192       H  0.15170443  0.70160734  0.90319626     0.36400
C1193       C  0.12943658  0.71143908  0.41436467    -0.27900
C1194       C  0.15338130  0.70274481  0.42694108     0.01700
C1195       C  0.17206544  0.69954053  0.39383772     0.29800
C1196       C  0.16610238  0.70308201  0.34807069    -0.19700
C1197       C  0.14154039  0.70998000  0.33474142    -0.29100
C1198       C  0.12348835  0.71541566  0.36862519     0.43900
C1199       C  0.15724078  0.69222422  0.47254723     0.05000
O1200       O  0.19556410  0.69083229  0.40561565    -0.57600
H1201       H  0.18046918  0.69918081  0.32293324     0.18000
O1202       O  0.09958447  0.72320510  0.35752415    -0.64300
H1203       H  0.11496006  0.71388170  0.43989529     0.16400
C1204       C  0.16943345  0.70589783  0.50701142     0.28700
C1205       C  0.17397318  0.69433459  0.54909978    -0.25200
C1206       C  0.16651709  0.66908975  0.55706145    -0.24500
C1207       C  0.15404047  0.65564130  0.52213977     0.40100
C1208       C  0.14960299  0.66725387  0.48036013    -0.26900
O1209       O  0.17664299  0.73055629  0.50002275    -0.58800
H1210       H  0.18329387  0.70516080  0.57549725     0.15800
O1211       O  0.14677656  0.63087848  0.52777175    -0.60300
H1212       H  0.14042371  0.65657755  0.45356463     0.14200
H1213       H  0.10075866  0.74188103  0.35396443     0.46100
H1214       H  0.19437343  0.72951933  0.48967865     0.41400
H1215       H  0.12881130  0.63174272  0.53681699     0.44900
H1216       H  0.20558917  0.70630430  0.41178774     0.36400
C1217       C  0.17366306  0.58321387  0.24580859    -0.27900
C1218       C  0.15529294  0.56416678  0.24341621     0.01700
C1219       C  0.13093949  0.57045602  0.22788758     0.29800
C1220       C  0.12516035  0.59549650  0.21587924    -0.19700
C1221       C  0.14338119  0.61472290  0.21909424    -0.29100
C1222       C  0.16788341  0.60831281  0.23390271     0.43900
C1223       C  0.16128404  0.53814959  0.25951009     0.05000
O1224       O  0.11260905  0.55225989  0.22443312    -0.57600
H1225       H  0.10625830  0.59990301  0.20428391     0.18000
O1226       O  0.18657105  0.62620399  0.23539386    -0.64300
H1227       H  0.19247235  0.57870261  0.25774419     0.16400
C1228       C  0.18205604  0.52442709  0.24255388     0.28700
C1229       C  0.18778521  0.50032350  0.26002010    -0.25200
C1230       C  0.17307414  0.48954241  0.29464284    -0.24500
C1231       C  0.15205658  0.50328418  0.31105786     0.40100
C1232       C  0.14634343  0.52723375  0.29339940    -0.26900
O1233       O  0.19695574  0.53445081  0.20910469    -0.58800
H1234       H  0.20404482  0.49025745  0.24694041     0.15800
O1235       O  0.13671666  0.49345310  0.34407000    -0.60300
H1236       H  0.13039369  0.53758923  0.30701508     0.14200
H1237       H  0.18684974  0.63229238  0.26727631     0.46100
H1238       H  0.18820042  0.53040604  0.18020591     0.41400
H1239       H  0.14275057  0.50101904  0.37296390     0.44900
H1240       H  0.11534698  0.54414579  0.19444023     0.36400
C1241       C  0.33966740  0.01279713  0.74833751    -0.27900
C1242       C  0.36250026  0.00102143  0.76077180     0.01700
C1243       C  0.38003979  0.01493790  0.78667201     0.29800
C1244       C  0.37435670  0.03965675  0.80083358    -0.19700
C1245       C  0.35116368  0.05115998  0.78995451    -0.29100
C1246       C  0.33391247  0.03760215  0.76273876     0.43900
C1247       C  0.36792250  0.97425502  0.74709585     0.05000
O1248       O  0.40255140  0.00428210  0.79959852    -0.57600
H1249       H  0.38799125  0.04964367  0.82159772     0.18000
O1250       O  0.31104745  0.04798578  0.75128235    -0.64300
H1251       H  0.32610362  0.00261455  0.72777088     0.16400
C1252       C  0.35109452  0.95437174  0.75714429     0.28700
C1253       C  0.35694148  0.92927450  0.74466083    -0.25200
C1254       C  0.37944290  0.92346469  0.72170862    -0.24500
C1255       C  0.39647504  0.94339599  0.71253675     0.40100
C1256       C  0.39055144  0.96839872  0.72482153    -0.26900
O1257       O  0.32934865  0.95914192  0.78075973    -0.58800
H1258       H  0.34365671  0.91436734  0.75261135     0.15800
O1259       O  0.41909846  0.93875712  0.69167842    -0.60300
H1260       H  0.40377288  0.98335513  0.71680689     0.14200
H1261       H  0.29961132  0.04343564  0.77657928     0.46100
H1262       H  0.31562961  0.95823156  0.75788786     0.41400
H1263       H  0.43082455  0.93398940  0.71657224     0.44900
H1264       H  0.39905528  0.99563065  0.82882544     0.36400
C1265       C  0.29695368  0.98553936  0.01421428    -0.27900
C1266       C  0.28409399  0.00700202  0.03040566     0.01700
C1267       C  0.27364785  0.00655288  0.07424274     0.29800
C1268       C  0.27876704  0.98601256  0.10309975    -0.19700
C1269       C  0.29447671  0.96604710  0.08873069    -0.29100
C1270       C  0.30204414  0.96506827  0.04288456     0.43900
C1271       C  0.28542606  0.03066626  0.00356887     0.05000
O1272       O  0.25905630  0.02640727  0.08927710    -0.57600
H1273       H  0.27205837  0.98676944  0.13780922     0.18000
O1274       O  0.31604171  0.94513873  0.02658575    -0.64300
H1275       H  0.30473762  0.98543478  0.98020932     0.16400
C1276       C  0.29824090  0.05194076  0.02107068     0.28700
C1277       C  0.30536106  0.07161043  0.99199440    -0.25200
C1278       C  0.29980305  0.07051348  0.94544521    -0.24500
C1279       C  0.28537926  0.05007265  0.92859176     0.40100
C1280       C  0.27840716  0.03033470  0.95763278    -0.26900
O1281       O  0.30639944  0.05233935  0.06534203    -0.58800
H1282       H  0.31645633  0.08710947  0.00553622     0.15800
O1283       O  0.28025558  0.04779308  0.88306777    -0.60300
H1284       H  0.26886475  0.01393091  0.94365642     0.14200
H1285       H  0.30362916  0.93168586  0.01942588     0.46100
H1286       H  0.29634366  0.06582709  0.08033763     0.41400
H1287       H  0.26344842  0.05571901  0.87885575     0.44900
H1288       H  0.26787200  0.03342787  0.11622664     0.36400
C1289       C  0.40098113  0.20763452  0.13113206    -0.27900
C1290       C  0.37692831  0.19989132  0.11701079     0.01700
C1291       C  0.35746968  0.19816319  0.14911986     0.29800
C1292       C  0.36240108  0.20321329  0.19481666    -0.19700
C1293       C  0.38669061  0.20992157  0.20960085    -0.29100
C1294       C  0.40593851  0.21283090  0.17696631     0.43900
C1295       C  0.37288895  0.19087942  0.06998685     0.05000
O1296       O  0.33413782  0.18934445  0.13678872    -0.57600
H1297       H  0.34725245  0.20072008  0.21897729     0.18000
O1298       O  0.42991307  0.21950109  0.18952989    -0.64300
H1299       H  0.41613505  0.20896301  0.10666551     0.16400
C1300       C  0.35349417  0.20081414  0.04248026     0.28700
C1301       C  0.34816679  0.18969318  0.00037978    -0.25200
C1302       C  0.36215774  0.16874676  0.98481082    -0.24500
C1303       C  0.38234798  0.15959161  0.01171071     0.40100
C1304       C  0.38754986  0.17070377  0.05377124    -0.26900
O1305       O  0.33943358  0.22118130  0.05669192    -0.58800
H1306       H  0.33284805  0.19733375  0.98013635     0.15800
O1307       O  0.39740346  0.14003259  0.99710665    -0.60300
H1308       H  0.40266052  0.16299776  0.07446782     0.14200
H1309       H  0.43011321  0.23831229  0.18852572     0.46100
H1310       H  0.34974438  0.23630612  0.04947090     0.41400
H1311       H  0.39037086  0.12456572  0.01142423     0.44900
H1312       H  0.32268034  0.20418664  0.13915549     0.36400
C1313       C  0.32234840  0.14575877  0.63153668    -0.27900
C1314       C  0.33450317  0.16802440  0.61809796     0.01700
C1315       C  0.34137584  0.18620937  0.65066521     0.29800
C1316       C  0.33763344  0.18118518  0.69670753    -0.19700
C1317       C  0.32710133  0.15805837  0.71064374    -0.29100
C1318       C  0.31857821  0.14065298  0.67757282     0.43900
C1319       C  0.34465484  0.16966987  0.57198116     0.05000
O1320       O  0.35268010  0.20844530  0.63773733    -0.57600
H1321       H  0.34382704  0.19499747  0.72159034     0.18000
O1322       O  0.30802008  0.11793056  0.68980405    -0.64300
H1323       H  0.31729955  0.13157671  0.60647330     0.16400
C1324       C  0.36970029  0.16230818  0.56442569     0.28700
C1325       C  0.37998453  0.16437132  0.52118865    -0.25200
C1326       C  0.36556338  0.17377833  0.48481146    -0.24500
C1327       C  0.34012790  0.18057143  0.49225303     0.40100
C1328       C  0.32984841  0.17855262  0.53589842    -0.26900
O1329       O  0.38415090  0.15275388  0.59921973    -0.58800
H1330       H  0.39942522  0.15870649  0.51628467     0.15800
O1331       O  0.32551371  0.19018858  0.45779115    -0.60300
H1332       H  0.31048575  0.18419834  0.54172850     0.14200
H1333       H  0.32241137  0.10607015  0.69371359     0.46100
H1334       H  0.39431006  0.16727702  0.61023336     0.41400
H1335       H  0.31630702  0.17538886  0.44530952     0.44900
H1336       H  0.37096866  0.20569010  0.64265847     0.36400
C1337       C  0.45686067  0.14025087  0.78787774    -0.27900
C1338       C  0.46813027  0.16208082  0.80625733     0.01700
C1339       C  0.45455137  0.17702877  0.83742880     0.29800
C1340       C  0.43000666  0.17033358  0.84911246    -0.19700
C1341       C  0.41877473  0.14850796  0.83081201    -0.29100
C1342       C  0.43239601  0.13333002  0.80016959     0.43900
C1343       C  0.49359616  0.16966386  0.79127653     0.05000
O1344       O  0.46507862  0.19824318  0.85659261    -0.57600
H1345       H  0.41975889  0.18215511  0.87292245     0.18000
O1346       O  0.42173379  0.11219591  0.78099413    -0.64300
H1347       H  0.46683124  0.12886104  0.76308456     0.16400
C1348       C  0.51386859  0.15237986  0.79222564     0.28700
C1349       C  0.53740069  0.15960252  0.77540445    -0.25200
C1350       C  0.54109747  0.18401632  0.75767852    -0.24500
C1351       C  0.52092515  0.20149922  0.75768523     0.40100
C1352       C  0.49743050  0.19423527  0.77433044    -0.26900
O1353       O  0.51097155  0.12862798  0.81056230    -0.58800
H1354       H  0.55275084  0.14600083  0.77591252     0.15800
O1355       O  0.52362183  0.22538117  0.73979242    -0.60300
H1356       H  0.48192969  0.20763547  0.77271960     0.14200
H1357       H  0.41206660  0.11856319  0.75443175     0.46100
H1358       H  0.51105904  0.11680196  0.78434263     0.41400
H1359       H  0.51898861  0.22369023  0.70726655     0.44900
H1360       H  0.47415112  0.19203067  0.88393073     0.36400
C1361       C  0.00603009  0.35580359  0.73356706    -0.27900
C1362       C  0.99549993  0.37940149  0.74502991     0.01700
C1363       C  0.00923274  0.39614512  0.77275392     0.29800
C1364       C  0.03283885  0.38889025  0.78967399    -0.19700
C1365       C  0.04308613  0.36489621  0.77962857    -0.29100
C1366       C  0.02966095  0.34854057  0.75031598     0.43900
C1367       C  0.96934833  0.38537564  0.73105890     0.05000
O1368       O  0.99884257  0.41875225  0.78645169    -0.57600
H1369       H  0.04260534  0.40172193  0.81240332     0.18000
O1370       O  0.03900993  0.32510981  0.73884304    -0.64300
H1371       H  0.99562762  0.34275081  0.71218705     0.16400
C1372       C  0.96339047  0.40734255  0.70588122     0.28700
C1373       C  0.93828813  0.41267905  0.69440046    -0.25200
C1374       C  0.91894032  0.39600554  0.70691847    -0.24500
C1375       C  0.92503019  0.37402757  0.73223575     0.40100
C1376       C  0.95001582  0.36886114  0.74387475    -0.26900
O1377       O  0.98200344  0.42342865  0.69159862    -0.58800
H1378       H  0.93404553  0.42951238  0.67463221     0.15800
O1379       O  0.90669460  0.35752275  0.74624713    -0.60300
H1380       H  0.95429722  0.35199976  0.76357189     0.14200
H1381       H  0.05035355  0.32821478  0.71272154     0.46100
H1382       H  0.98742185  0.41669099  0.66170849     0.41400
H1383       H  0.90126410  0.36397747  0.77632089     0.44900
H1384       H  0.00845645  0.43207340  0.77027025     0.36400
C1385       C  0.99651238  0.28263011  0.06451460    -0.27900
C1386       C  0.99659649  0.29630756  0.02360843     0.01700
C1387       C  0.97746064  0.31418283  0.01496131     0.29800
C1388       C  0.95978421  0.31971772  0.04856754    -0.19700
C1389       C  0.96081422  0.30744514  0.09081814    -0.29100
C1390       C  0.97848323  0.28788566  0.09796195     0.43900
C1391       C  0.01957299  0.29696109  0.99575053     0.05000
O1392       O  0.97717285  0.32778682  0.97519015    -0.57600
H1393       H  0.94612558  0.33470375  0.04261283     0.18000
O1394       O  0.98009263  0.27587773  0.13919625    -0.64300
H1395       H  0.01149870  0.26921434  0.07176620     0.16400
C1396       C  0.03893036  0.31364893  0.00850024     0.28700
C1397       C  0.05858237  0.31859817  0.97859713    -0.25200
C1398       C  0.05929193  0.30712201  0.93566858    -0.24500
C1399       C  0.04082297  0.28913974  0.92386385     0.40100
C1400       C  0.02083408  0.28434187  0.95381751    -0.26900
O1401       O  0.03788469  0.32646724  0.04905394    -0.58800
H1402       H  0.07258427  0.33261423  0.98792806     0.15800
O1403       O  0.04075035  0.27817778  0.88161700    -0.60300
H1404       H  0.00574026  0.27180175  0.94347843     0.14200
H1405       H  0.96861848  0.26113009  0.13669986     0.46100
H1406       H  0.02868937  0.34245286  0.04230405     0.41400
H1407       H  0.05038065  0.26214959  0.88526055     0.44900
H1408       H  0.98687239  0.34343126  0.98173492     0.36400
C1409       C  0.18742662  0.23336846  0.82427853    -0.27900
C1410       C  0.20175715  0.23057312  0.86419532     0.01700
C1411       C  0.19737869  0.24733661  0.90078588     0.29800
C1412       C  0.17998514  0.26716513  0.89625459    -0.19700
C1413       C  0.16617259  0.27028561  0.85598277    -0.29100
C1414       C  0.16966611  0.25294061  0.82008653     0.43900
C1415       C  0.22285969  0.21194036  0.86571665     0.05000
O1416       O  0.21055224  0.24497493  0.94072242    -0.57600
H1417       H  0.17756569  0.28042569  0.92406767     0.18000
O1418       O  0.15696448  0.25585692  0.77974142    -0.64300
H1419       H  0.19086960  0.22116202  0.79534381     0.16400
C1420       C  0.21981453  0.18642839  0.85221283     0.28700
C1421       C  0.24064449  0.16990483  0.85161969    -0.25200
C1422       C  0.26474192  0.17860554  0.86352656    -0.24500
C1423       C  0.26756321  0.20397752  0.87814052     0.40100
C1424       C  0.24682860  0.22030328  0.87895898    -0.26900
O1425       O  0.19652113  0.17741924  0.84015873    -0.58800
H1426       H  0.23808185  0.15054086  0.84016715     0.15800
O1427       O  0.29054029  0.21304428  0.89204542    -0.60300
H1428       H  0.24972381  0.23988998  0.88883010     0.14200
H1429       H  0.16732900  0.26774068  0.76158738     0.46100
H1430       H  0.19725444  0.17479326  0.80681154     0.41400
H1431       H  0.29701233  0.22302274  0.86601076     0.44900
H1432       H  0.20149924  0.23179437  0.95826025     0.36400
C1433       C  0.18837110  0.36272823  0.03214863    -0.27900
C1434       C  0.17368084  0.37471731  0.06527083     0.01700
C1435       C  0.14881650  0.38196333  0.05512469     0.29800
C1436       C  0.13892298  0.37738184  0.01195167    -0.19700
C1437       C  0.15362526  0.36566472  0.97828752    -0.29100
C1438       C  0.17860214  0.35837208  0.98864727     0.43900
C1439       C  0.18382538  0.37867797  0.11120562     0.05000
O1440       O  0.13402598  0.39344220  0.08733495    -0.57600
H1441       H  0.11973648  0.38321213  0.00472154     0.18000
O1442       O  0.19328274  0.34614984  0.95716834    -0.64300
H1443       H  0.20742747  0.35675410  0.04009455     0.16400
C1444       C  0.18569439  0.35821329  0.14158445     0.28700
C1445       C  0.19156428  0.36273250  0.18709515    -0.25200
C1446       C  0.19616734  0.38749023  0.20252274    -0.24500
C1447       C  0.19577523  0.40780728  0.17151156     0.40100
C1448       C  0.18932279  0.40333264  0.12610012    -0.26900
O1449       O  0.18000467  0.33403133  0.12779517    -0.58800
H1450       H  0.19170936  0.34697029  0.21076667     0.15800
O1451       O  0.19934684  0.43226975  0.18603185    -0.60300
H1452       H  0.18770248  0.41919206  0.10282018     0.14200
H1453       H  0.20390124  0.35959481  0.94356965     0.46100
H1454       H  0.19632257  0.32646043  0.11852843     0.41400
H1455       H  0.21765568  0.43536758  0.18265420     0.44900
H1456       H  0.12618168  0.37931385  0.10442493     0.36400
C1457       C  0.17337204  0.33219422  0.63892539    -0.27900
C1458       C  0.15359215  0.33493637  0.60775219     0.01700
C1459       C  0.12863072  0.33135751  0.62199438     0.29800
C1460       C  0.12351131  0.32742663  0.66789694    -0.19700
C1461       C  0.14308577  0.32725088  0.70010414    -0.29100
C1462       C  0.16829322  0.32819462  0.68495114     0.43900
C1463       C  0.15866824  0.34566886  0.56264550     0.05000
O1464       O  0.10913227  0.33258354  0.59130949    -0.57600
H1465       H  0.10403069  0.32598614  0.67843651     0.18000
O1466       O  0.18805576  0.32646946  0.71490191    -0.64300
H1467       H  0.19268343  0.33468651  0.62801121     0.16400
C1468       C  0.14951933  0.37001221  0.55214391     0.28700
C1469       C  0.15387346  0.38036479  0.50952377    -0.25200
C1470       C  0.16774366  0.36698600  0.47670484    -0.24500
C1471       C  0.17754615  0.34276714  0.48767871     0.40100
C1472       C  0.17305016  0.33232159  0.53068774    -0.26900
O1473       O  0.13639750  0.38396213  0.58360637    -0.58800
H1474       H  0.14644399  0.39913376  0.50244643     0.15800
O1475       O  0.19159819  0.32922868  0.45700465    -0.60300
H1476       H  0.18052904  0.31372540  0.53895626     0.14200
H1477       H  0.19145455  0.30803103  0.71801710     0.46100
H1478       H  0.14942076  0.39289569  0.60170686     0.41400
H1479       H  0.17925696  0.31884691  0.43986581     0.44900
H1480       H  0.10009512  0.34864650  0.59805347     0.36400
C1481       C  0.13170029  0.46928728  0.81380225    -0.27900
C1482       C  0.15546865  0.47539577  0.79625681     0.01700
C1483       C  0.17319975  0.45572086  0.78959923     0.29800
C1484       C  0.16691915  0.43053963  0.80002142    -0.19700
C1485       C  0.14298003  0.42444654  0.81694076    -0.29100
C1486       C  0.12526336  0.44417377  0.82347062     0.43900
C1487       C  0.16094988  0.50205571  0.78270132     0.05000
O1488       O  0.19661849  0.46081385  0.77237175    -0.57600
H1489       H  0.18089112  0.41577197  0.79508714     0.18000
O1490       O  0.10143934  0.43919379  0.83898238    -0.64300
H1491       H  0.11787934  0.48408499  0.81970567     0.16400
C1492       C  0.14397811  0.51566808  0.75485423     0.28700
C1493       C  0.15000139  0.54004154  0.73986040    -0.25200
C1494       C  0.17304238  0.55136017  0.75149468    -0.24500
C1495       C  0.18971409  0.53817244  0.78056534     0.40100
C1496       C  0.18350975  0.51381835  0.79619153    -0.26900
O1497       O  0.12179286  0.50499046  0.74058336    -0.58800
H1498       H  0.13682547  0.54982422  0.71772742     0.15800
O1499       O  0.21250968  0.54839964  0.79252546    -0.60300
H1500       H  0.19661737  0.50389013  0.81821395     0.14200
H1501       H  0.09166103  0.43423110  0.81164069     0.46100
H1502       H  0.12603439  0.49576203  0.71223765     0.41400
H1503       H  0.22425561  0.54325926  0.76801677     0.44900
H1504       H  0.19482972  0.45897653  0.73898767     0.36400
loop_ 
_geom_bond_atom_site_label_1 
_geom_bond_atom_site_label_2 
_geom_bond_distance 
_geom_bond_site_symmetry_2 
_ccdc_geom_bond_type 
O1           C16   1.260       .  A
O1           Al9   1.882       .  S
C2           O12   1.260       .  A
C2            O3   1.264       .  A
C2         C1461   1.476       .  S
O3           Al5   1.916       .  S
O4            C6   1.261       .  A
O4           Al5   1.909       .  S
Al5          O13   1.888       .  S
Al5          O15   1.912       .  S
Al5          O14   1.785       .  S
C6           O19   1.258       .  A
C6         C1485   1.484       .  S
O7           C17   1.261       .  A
O7           Al9   1.891       .  S
O8           C21   1.262       .  A
O8          Al18   1.906       .  S
Al9          O22   1.894       .  S
Al9          O19   1.898       .  S
Al9          O14   1.779       .  S
O10          C17   1.264       .  A
O10         Al18   1.921       .  S
O11          C20   1.262       .  A
O11         Al18   1.920       .  S
O12         Al18   1.876       .  S
O13          C20   1.257       .  A
O14         Al18   1.791       .  S
O15          C16   1.263       .  A
C16        C1437   1.475       .  S
C17        C1365   1.483       .  S
C20        C1413   1.474       .  S
C21          O22   1.260       .  A
C21        C1398   1.468       .  S
O23          C38   1.263       .  A
O23         Al31   1.919       .  S
C24          O34   1.261       .  A
C24          O25   1.262       .  A
C24        C1302   1.482       .  S
O25         Al27   1.912       .  S
O26          C28   1.263       .  A
O26         Al27   1.893       .  S
Al27         O35   1.903       .  S
Al27         O37   1.896       .  S
Al27         O36   1.781       .  S
C28          O41   1.262       .  A
C28        C1278   1.476       .  S
O29          C39   1.262       .  A
O29         Al31   1.916       .  S
O30          C43   1.262       .  A
O30         Al40   1.882       .  S
Al31         O44   1.906       .  S
Al31         O41   1.902       .  S
Al31         O36   1.792       .  S
O32          C39   1.255       .  A
O32         Al40   1.880       .  S
O33          C42   1.259       .  A
O33         Al40   1.902       .  S
O34         Al40   1.897       .  S
O35          C42   1.260       .  A
O36         Al40   1.787       .  S
O37          C38   1.258       .  A
C38        C1245   1.489       .  S
C39        C1422   1.481       .  S
C42        C1341   1.469       .  S
C43          O44   1.263       .  A
C43        C1317   1.471       .  S
O45          C60   1.257       .  A
O45         Al53   1.880       .  S
C46          O56   1.262       .  A
C46          O47   1.266       .  A
C46        C1197   1.480       .  S
O47         Al49   1.916       .  S
O48          C50   1.260       .  A
O48         Al49   1.898       .  S
Al49         O57   1.895       .  S
Al49         O59   1.902       .  S
Al49         O58   1.784       .  S
C50          O63   1.260       .  A
C50        C1221   1.482       .  S
O51          C61   1.259       .  A
O51         Al53   1.894       .  S
O52          C65   1.263       .  A
O52         Al62   1.900       .  S
Al53         O66   1.899       .  S
Al53         O63   1.903       .  S
Al53         O58   1.783       .  S
O54          C61   1.261       .  A
O54         Al62   1.914       .  S
O55          C64   1.260       .  A
O55         Al62   1.915       .  S
O56         Al62   1.885       .  S
O57          C64   1.257       .  A
O58         Al62   1.792       .  S
O59          C60   1.259       .  A
C60        C1182   1.471       .  S
C61        C1125   1.485       .  S
C64        C1149   1.474       .  S
C65          O66   1.263       .  A
C65        C1101   1.465       .  S
O67          C82   1.262       .  A
O67         Al75   1.916       .  S
C68          O78   1.258       .  A
C68          O69   1.259       .  A
C68        C1029   1.481       .  S
O69         Al71   1.901       .  S
O70          C72   1.261       .  A
O70         Al71   1.884       .  S
Al71         O79   1.895       .  S
Al71         O81   1.901       .  S
Al71         O80   1.785       .  S
C72          O85   1.264       .  A
C72        C1269   1.477       .  S
O73          C83   1.261       .  A
O73         Al75   1.914       .  S
O74          C87   1.259       .  A
O74         Al84   1.875       .  S
Al75         O88   1.916       .  S
Al75         O85   1.912       .  S
Al75         O80   1.796       .  S
O76          C83   1.256       .  A
O76         Al84   1.879       .  S
O77          C86   1.263       .  A
O77         Al84   1.907       .  S
O78         Al84   1.902       .  S
O79          C86   1.261       .  A
O80         Al84   1.788       .  S
O81          C82   1.258       .  A
C82        C1014   1.490       .  S
C83        C1158   1.479       .  S
C86        C1086   1.479       .  S
C87          O88   1.263       .  A
C87        C1062   1.470       .  S
O89         C104   1.262       .  A
O89         Al97   1.919       .  S
C90         O100   1.259       .  A
C90          O91   1.263       .  A
C90         C942   1.473       .  S
O91         Al93   1.912       .  S
O92          C94   1.260       .  A
O92         Al93   1.872       .  S
Al93        O101   1.902       .  S
Al93        O103   1.889       .  S
Al93        O102   1.779       .  S
C94         O107   1.267       .  A
C94         C870   1.478       .  S
O95         C105   1.262       .  A
O95         Al97   1.928       .  S
O96         C109   1.258       .  A
O96        Al106   1.859       .  S
Al97        O110   1.935       .  S
Al97        O107   1.926       .  S
Al97        O102   1.793       .  S
O98         C105   1.256       .  A
O98        Al106   1.889       .  S
O99         C108   1.262       .  A
O99        Al106   1.914       .  S
O100       Al106   1.888       .  S
O101        C108   1.260       .  A
O102       Al106   1.783       .  S
O103        C104   1.256       .  A
C104        C885   1.485       .  S
C105        C918   1.495       .  S
C108        C981   1.478       .  S
C109        O110   1.269       .  A
C109        C966   1.470       .  S
O111        C126   1.255       .  A
O111       Al119   1.859       .  S
C112        O122   1.262       .  A
C112        O113   1.266       .  A
C112        C822   1.477       .  S
O113       Al115   1.914       .  S
O114        C116   1.261       .  A
O114       Al115   1.911       .  S
Al115       O123   1.900       .  S
Al115       O125   1.921       .  S
Al115       O124   1.781       .  S
C116        O129   1.261       .  A
C116        C837   1.494       .  S
O117        C127   1.257       .  A
O117       Al119   1.880       .  S
O118        C131   1.262       .  A
O118       Al128   1.901       .  S
Al119       O132   1.908       .  S
Al119       O129   1.911       .  S
Al119       O124   1.775       .  S
O120        C127   1.266       .  A
O120       Al128   1.933       .  S
O121        C130   1.263       .  A
O121       Al128   1.928       .  S
O122       Al128   1.881       .  S
O123        C130   1.260       .  A
O124       Al128   1.790       .  S
O125        C126   1.264       .  A
C126        C789   1.472       .  S
C127        C774   1.481       .  S
C130        C909   1.492       .  S
C131        O132   1.264       .  A
C131       C1389   1.469       .  S
O133        C148   1.258       .  A
O133       Al141   1.878       .  S
C134        O144   1.261       .  A
C134        O135   1.267       .  A
C134        C726   1.480       .  S
O135       Al137   1.927       .  S
O136        C138   1.260       .  A
O136       Al137   1.905       .  S
Al137       O145   1.896       .  S
Al137       O147   1.918       .  S
Al137       O146   1.783       .  S
C138        O151   1.259       .  A
C138        C741   1.485       .  S
O139        C149   1.258       .  A
O139       Al141   1.895       .  S
O140        C153   1.263       .  A
O140       Al150   1.898       .  S
Al141       O154   1.906       .  S
Al141       O151   1.897       .  S
Al141       O146   1.781       .  S
O142        C149   1.263       .  A
O142       Al150   1.923       .  S
O143        C152   1.262       .  A
O143       Al150   1.925       .  S
O144       Al150   1.882       .  S
O145        C152   1.258       .  A
O146       Al150   1.791       .  S
O147        C148   1.264       .  A
C148        C702   1.471       .  S
C149        C645   1.481       .  S
C152        C669   1.486       .  S
C153        O154   1.264       .  A
C153       C1110   1.466       .  S
O155        C170   1.260       .  A
O155       Al163   1.909       .  S
C156        O166   1.260       .  A
C156        O157   1.260       .  A
C156        C582   1.481       .  S
O157       Al159   1.905       .  S
O158        C160   1.262       .  A
O158       Al159   1.891       .  S
Al159       O167   1.903       .  S
Al159       O169   1.893       .  S
Al159       O168   1.784       .  S
C160        O173   1.263       .  A
C160        C861   1.477       .  S
O161        C171   1.261       .  A
O161       Al163   1.920       .  S
O162        C175   1.259       .  A
O162       Al172   1.872       .  S
Al163       O176   1.919       .  S
Al163       O173   1.907       .  S
Al163       O168   1.796       .  S
O164        C171   1.256       .  A
O164       Al172   1.886       .  S
O165        C174   1.261       .  A
O165       Al172   1.907       .  S
O166       Al172   1.898       .  S
O167        C174   1.262       .  A
O168       Al172   1.786       .  S
O169        C170   1.257       .  A
C170        C549   1.480       .  S
C171        C678   1.491       .  S
C174        C630   1.485       .  S
C175        O176   1.264       .  A
C175        C606   1.468       .  S
O177        C192   1.257       .  A
O177       Al185   1.871       .  S
C178        O188   1.262       .  A
C178        O179   1.266       .  A
C178       C1293   1.482       .  S
O179       Al181   1.913       .  S
O180        C182   1.260       .  A
O180       Al181   1.896       .  S
Al181       O189   1.884       .  S
Al181       O191   1.911       .  S
Al181       O190   1.780       .  S
C182        O195   1.263       .  A
C182       C1005   1.490       .  S
O183        C193   1.258       .  A
O183       Al185   1.893       .  S
O184        C197   1.262       .  A
O184       Al194   1.895       .  S
Al185       O198   1.918       .  S
Al185       O195   1.921       .  S
Al185       O190   1.776       .  S
O186        C193   1.263       .  A
O186       Al194   1.922       .  S
O187        C196   1.263       .  A
O187       Al194   1.928       .  S
O188       Al194   1.892       .  S
O189        C196   1.256       .  A
O190       Al194   1.790       .  S
O191        C192   1.260       .  A
C192       C1326   1.474       .  S
C193        C990   1.476       .  S
C196        C501   1.480       .  S
C197        O198   1.266       .  A
C197        C534   1.469       .  S
O199        C214   1.260       .  A
O199       Al207   1.905       .  S
C200        O210   1.258       .  A
C200        O201   1.262       .  A
C200       C1470   1.476       .  S
O201       Al203   1.902       .  S
O202        C204   1.259       .  A
O202       Al203   1.878       .  S
Al203       O211   1.894       .  S
Al203       O213   1.897       .  S
Al203       O212   1.778       .  S
C204        O217   1.267       .  A
C204        C486   1.480       .  S
O205        C215   1.260       .  A
O205       Al207   1.908       .  S
O206        C219   1.258       .  A
O206       Al216   1.865       .  S
Al207       O220   1.926       .  S
Al207       O217   1.926       .  S
Al207       O212   1.786       .  S
O208        C215   1.258       .  A
O208       Al216   1.891       .  S
O209        C218   1.264       .  A
O209       Al216   1.915       .  S
O210       Al216   1.891       .  S
O211        C218   1.260       .  A
O212       Al216   1.782       .  S
O213        C214   1.258       .  A
C214       C1230   1.485       .  S
C215        C510   1.484       .  S
C218        C765   1.479       .  S
C219        O220   1.267       .  A
C219       C1446   1.466       .  S
O221        C236   1.263       .  A
O221       Al229   1.917       .  S
C222        O232   1.259       .  A
C222        O223   1.262       .  A
C222        C813   1.476       .  S
O223       Al225   1.901       .  S
O224        C226   1.262       .  A
O224       Al225   1.885       .  S
Al225       O233   1.908       .  S
Al225       O235   1.887       .  S
Al225       O234   1.776       .  S
C226        O239   1.267       .  A
C226        C453   1.483       .  S
O227        C237   1.261       .  A
O227       Al229   1.914       .  S
O228        C241   1.258       .  A
O228       Al238   1.863       .  S
Al229       O242   1.932       .  S
Al229       O239   1.928       .  S
Al229       O234   1.789       .  S
O230        C237   1.256       .  A
O230       Al238   1.880       .  S
O231        C240   1.260       .  A
O231       Al238   1.902       .  S
O232       Al238   1.892       .  S
O233        C240   1.263       .  A
O234       Al238   1.780       .  S
O235        C236   1.256       .  A
C236        C750   1.488       .  S
C237        C438   1.484       .  S
C240       C1374   1.478       .  S
C241        O242   1.268       .  A
C241        C798   1.476       .  S
O243        C258   1.258       .  A
O243       Al251   1.878       .  S
C244        O254   1.260       .  A
C244        O245   1.266       .  A
C244        C933   1.479       .  S
O245       Al247   1.922       .  S
O246        C248   1.259       .  A
O246       Al247   1.894       .  S
Al247       O255   1.881       .  S
Al247       O257   1.915       .  S
Al247       O256   1.779       .  S
C248        O261   1.260       .  A
C248        C558   1.488       .  S
O249        C259   1.260       .  A
O249       Al251   1.892       .  S
O250        C263   1.262       .  A
O250       Al260   1.900       .  S
Al251       O264   1.904       .  S
Al251       O261   1.913       .  S
Al251       O256   1.778       .  S
O252        C259   1.262       .  A
O252       Al260   1.915       .  S
O253        C262   1.262       .  A
O253       Al260   1.921       .  S
O254       Al260   1.881       .  S
O255        C262   1.255       .  A
O256       Al260   1.790       .  S
O257        C258   1.264       .  A
C258        C957   1.473       .  S
C259       C1350   1.473       .  S
C262        C429   1.480       .  S
C263        O264   1.263       .  A
C263        C525   1.462       .  S
O265        C280   1.256       .  A
O265       Al273   1.873       .  S
C266        O276   1.260       .  A
C266        O267   1.266       .  A
C266        C573   1.484       .  S
O267       Al269   1.923       .  S
O268        C270   1.258       .  A
O268       Al269   1.891       .  S
Al269       O277   1.889       .  S
Al269       O279   1.924       .  S
Al269       O278   1.781       .  S
C270        O283   1.264       .  A
C270        C894   1.490       .  S
O271        C281   1.258       .  A
O271       Al273   1.885       .  S
O272        C285   1.264       .  A
O272       Al282   1.907       .  S
Al273       O286   1.913       .  S
Al273       O283   1.924       .  S
Al273       O278   1.776       .  S
O274        C281   1.263       .  A
O274       Al282   1.915       .  S
O275        C284   1.264       .  A
O275       Al282   1.928       .  S
O276       Al282   1.885       .  S
O277        C284   1.258       .  A
O278       Al282   1.789       .  S
O279        C280   1.264       .  A
C280        C597   1.480       .  S
C281       C1077   1.478       .  S
C284        C381   1.477       .  S
C285        O286   1.265       .  A
C285        C405   1.474       .  S
O287        C302   1.261       .  A
O287       Al295   1.915       .  S
C288        O298   1.260       .  A
C288        O289   1.262       .  A
C288        C717   1.479       .  S
O289       Al291   1.910       .  S
O290        C292   1.263       .  A
O290       Al291   1.889       .  S
Al291       O299   1.901       .  S
Al291       O301   1.905       .  S
Al291       O300   1.781       .  S
C292        O305   1.268       .  A
C292        C462   1.486       .  S
O293        C303   1.261       .  A
O293       Al295   1.914       .  S
O294        C307   1.258       .  A
O294       Al304   1.871       .  S
Al295       O308   1.928       .  S
Al295       O305   1.930       .  S
Al295       O300   1.789       .  S
O296        C303   1.258       .  A
O296       Al304   1.892       .  S
O297        C306   1.262       .  A
O297       Al304   1.908       .  S
O298       Al304   1.898       .  S
O299        C306   1.262       .  A
O300       Al304   1.786       .  S
O301        C302   1.259       .  A
C302        C846   1.490       .  S
C303        C390   1.488       .  S
C306       C1134   1.478       .  S
C307        O308   1.267       .  A
C307        C693   1.479       .  S
O309        C324   1.255       .  A
O309       Al317   1.878       .  S
C310        O320   1.261       .  A
C310        O311   1.264       .  A
C310       C1038   1.485       .  S
O311       Al313   1.917       .  S
O312        C314   1.263       .  A
O312       Al313   1.910       .  S
Al313       O321   1.900       .  S
Al313       O323   1.917       .  S
Al313       O322   1.787       .  S
C314        O327   1.263       .  A
C314       C1254   1.492       .  S
O315        C325   1.258       .  A
O315       Al317   1.889       .  S
O316        C329   1.262       .  A
O316       Al326   1.907       .  S
Al317       O330   1.904       .  S
Al317       O327   1.914       .  S
Al317       O322   1.780       .  S
O318        C325   1.262       .  A
O318       Al326   1.914       .  S
O319        C328   1.262       .  A
O319       Al326   1.920       .  S
O320       Al326   1.891       .  S
O321        C328   1.261       .  A
O322       Al326   1.793       .  S
O323        C324   1.261       .  A
C324       C1053   1.482       .  S
C325        C621   1.481       .  S
C328        C357   1.475       .  S
C329        O330   1.263       .  A
C329        C414   1.475       .  S
O331        C346   1.260       .  A
O331       Al339   1.904       .  S
C332        O342   1.260       .  A
C332        O333   1.263       .  A
C332       C1206   1.478       .  S
O333       Al335   1.911       .  S
O334        C336   1.261       .  A
O334       Al335   1.887       .  S
Al335       O343   1.901       .  S
Al335       O345   1.899       .  S
Al335       O344   1.778       .  S
C336        O349   1.264       .  A
C336        C477   1.480       .  S
O337        C347   1.260       .  A
O337       Al339   1.907       .  S
O338        C351   1.260       .  A
O338       Al348   1.874       .  S
Al339       O352   1.916       .  S
Al339       O349   1.915       .  S
Al339       O344   1.790       .  S
O340        C347   1.260       .  A
O340       Al348   1.900       .  S
O341        C350   1.262       .  A
O341       Al348   1.920       .  S
O342       Al348   1.890       .  S
O343        C350   1.260       .  A
O344       Al348   1.784       .  S
O345        C346   1.260       .  A
C346       C1494   1.482       .  S
C347        C366   1.483       .  S
C350        C654   1.477       .  S
C351        O352   1.265       .  A
C351       C1173   1.470       .  S
C353        C354   1.405       .  A
C353        C358   1.400       .  A
C353        H363   1.083       .  S
C354        C359   1.485       .  S
C354        C355   1.410       .  A
C355        C356   1.401       .  A
C355        O360   1.372       .  S
C356        C357   1.404       .  A
C356        H361   1.084       .  S
C357        C358   1.407       .  A
C358        O362   1.372       .  S
C359        C364   1.407       .  A
C359        C368   1.406       .  A
O360        H376   0.992       .  S
O362        H373   0.992       .  S
C364        C365   1.396       .  A
C364        O369   1.372       .  S
C365        C366   1.405       .  A
C365        H370   1.084       .  S
C366        C367   1.411       .  A
C367        C368   1.405       .  A
C367        O371   1.371       .  S
C368        H372   1.083       .  S
O369        H374   0.992       .  S
O371        H375   0.992       .  S
C377        C378   1.404       .  A
C377        C382   1.399       .  A
C377        H387   1.083       .  S
C378        C383   1.485       .  S
C378        C379   1.409       .  A
C379        C380   1.401       .  A
C379        O384   1.372       .  S
C380        C381   1.404       .  A
C380        H385   1.084       .  S
C381        C382   1.409       .  A
C382        O386   1.372       .  S
C383        C388   1.407       .  A
C383        C392   1.405       .  A
O384        H400   0.992       .  S
O386        H397   0.992       .  S
C388        C389   1.397       .  A
C388        O393   1.373       .  S
C389        C390   1.408       .  A
C389        H394   1.084       .  S
C390        C391   1.412       .  A
C391        C392   1.405       .  A
C391        O395   1.371       .  S
C392        H396   1.083       .  S
O393        H398   0.992       .  S
O395        H399   0.992       .  S
C401        C402   1.405       .  A
C401        C406   1.406       .  A
C401        H411   1.083       .  S
C402        C407   1.480       .  S
C402        C403   1.407       .  A
C403        C404   1.396       .  A
C403        O408   1.372       .  S
C404        C405   1.401       .  A
C404        H409   1.083       .  S
C405        C406   1.409       .  A
C406        O410   1.371       .  S
C407        C412   1.407       .  A
C407        C416   1.405       .  A
O408        H424   0.992       .  S
O410        H421   0.992       .  S
C412        C413   1.397       .  A
C412        O417   1.372       .  S
C413        C414   1.403       .  A
C413        H418   1.082       .  S
C414        C415   1.408       .  A
C415        C416   1.405       .  A
C415        O419   1.371       .  S
C416        H420   1.083       .  S
O417        H422   0.992       .  S
O419        H423   0.992       .  S
C425        C426   1.403       .  A
C425        C430   1.397       .  A
C425        H435   1.084       .  S
C426        C431   1.481       .  S
C426        C427   1.408       .  A
C427        C428   1.400       .  A
C427        O432   1.372       .  S
C428        C429   1.406       .  A
C428        H433   1.083       .  S
C429        C430   1.412       .  A
C430        O434   1.372       .  S
C431        C436   1.406       .  A
C431        C440   1.405       .  A
O432        H448   0.992       .  S
O434        H445   0.992       .  S
C436        C437   1.393       .  A
C436        O441   1.373       .  S
C437        C438   1.408       .  A
C437        H442   1.083       .  S
C438        C439   1.411       .  A
C439        C440   1.404       .  A
C439        O443   1.371       .  S
C440        H444   1.083       .  S
O441        H446   0.992       .  S
O443        H447   0.992       .  S
C449        C450   1.402       .  A
C449        C454   1.398       .  A
C449        H459   1.084       .  S
C450        C455   1.482       .  S
C450        C451   1.407       .  A
C451        C452   1.404       .  A
C451        O456   1.373       .  S
C452        C453   1.408       .  A
C452        H457   1.083       .  S
C453        C454   1.412       .  A
C454        O458   1.373       .  S
C455        C460   1.409       .  A
C455        C464   1.403       .  A
O456        H472   0.992       .  S
O458        H469   0.992       .  S
C460        C461   1.398       .  A
C460        O465   1.372       .  S
C461        C462   1.406       .  A
C461        H466   1.083       .  S
C462        C463   1.413       .  A
C463        C464   1.402       .  A
C463        O467   1.371       .  S
C464        H468   1.084       .  S
O465        H470   0.992       .  S
O467        H471   0.992       .  S
C473        C474   1.401       .  A
C473        C478   1.400       .  A
C473        H483   1.084       .  S
C474        C479   1.476       .  S
C474        C475   1.407       .  A
C475        C476   1.396       .  A
C475        O480   1.372       .  S
C476        C477   1.404       .  A
C476        H481   1.084       .  S
C477        C478   1.414       .  A
C478        O482   1.371       .  S
C479        C484   1.405       .  A
C479        C488   1.401       .  A
O480        H496   0.992       .  S
O482        H493   0.992       .  S
C484        C485   1.399       .  A
C484        O489   1.371       .  S
C485        C486   1.406       .  A
C485        H490   1.083       .  S
C486        C487   1.414       .  A
C487        C488   1.398       .  A
C487        O491   1.373       .  S
C488        H492   1.084       .  S
O489        H494   0.992       .  S
O491        H495   0.992       .  S
C497        C498   1.405       .  A
C497        C502   1.397       .  A
C497        H507   1.083       .  S
C498        C503   1.489       .  S
C498        C499   1.411       .  A
C499        C500   1.401       .  A
C499        O504   1.372       .  S
C500        C501   1.404       .  A
C500        H505   1.083       .  S
C501        C502   1.411       .  A
C502        O506   1.372       .  S
C503        C508   1.410       .  A
C503        C512   1.407       .  A
O504        H520   0.992       .  S
O506        H517   0.992       .  S
C508        C509   1.394       .  A
C508        O513   1.373       .  S
C509        C510   1.405       .  A
C509        H514   1.084       .  S
C510        C511   1.411       .  A
C511        C512   1.405       .  A
C511        O515   1.371       .  S
C512        H516   1.083       .  S
O513        H518   0.992       .  S
O515        H519   0.992       .  S
C521        C522   1.403       .  A
C521        C526   1.394       .  A
C521        H531   1.084       .  S
C522        C527   1.476       .  S
C522        C523   1.408       .  A
C523        C524   1.402       .  A
C523        O528   1.371       .  S
C524        C525   1.403       .  A
C524        H529   1.084       .  S
C525        C526   1.404       .  A
C526        O530   1.372       .  S
C527        C532   1.407       .  A
C527        C536   1.404       .  A
O528        H544   0.991       .  S
O530        H541   0.992       .  S
C532        C533   1.401       .  A
C532        O537   1.372       .  S
C533        C534   1.402       .  A
C533        H538   1.084       .  S
C534        C535   1.407       .  A
C535        C536   1.398       .  A
C535        O539   1.372       .  S
C536        H540   1.084       .  S
O537        H542   0.992       .  S
O539        H543   0.992       .  S
C545        C546   1.405       .  A
C545        C550   1.404       .  A
C545        H555   1.083       .  S
C546        C551   1.482       .  S
C546        C547   1.406       .  A
C547        C548   1.398       .  A
C547        O552   1.372       .  S
C548        C549   1.406   1_545  A
C548        H553   1.084   1_545  S
C549        C550   1.410   1_565  A
C550        O554   1.371   1_545  S
C551        C556   1.407       .  A
C551        C560   1.402       .  A
O552        H568   0.992       .  S
O554        H565   0.992       .  S
C556        C557   1.400       .  A
C556        O561   1.372       .  S
C557        C558   1.408       .  A
C557        H562   1.083       .  S
C558        C559   1.415       .  A
C559        C560   1.401       .  A
C559        O563   1.372       .  S
C560        H564   1.084       .  S
O561        H566   0.992       .  S
O563        H567   0.992       .  S
C569        C570   1.401       .  A
C569        C574   1.401       .  A
C569        H579   1.084       .  S
C570        C575   1.476       .  S
C570        C571   1.405       .  A
C571        C572   1.398       .  A
C571        O576   1.372       .  S
C572        C573   1.406       .  A
C572        H577   1.083       .  S
C573        C574   1.415       .  A
C574        O578   1.372       .  S
C575        C580   1.407       .  A
C575        C584   1.399       .  A
O576        H592   0.992       .  S
O578        H589   0.992       .  S
C580        C581   1.400   1_554  A
C580        O585   1.371       .  S
C581        C582   1.406       .  A
C581        H586   1.083       .  S
C582        C583   1.415   1_556  A
C583        C584   1.396       .  A
C583        O587   1.372   1_554  S
C584        H588   1.084       .  S
O585        H590   0.992       .  S
O587        H591   0.992   1_556  S
C593        C594   1.399       .  A
C593        C598   1.394       .  A
C593        H603   1.084       .  S
C594        C599   1.473       .  S
C594        C595   1.405       .  A
C595        C596   1.402       .  A
C595        O600   1.372       .  S
C596        C597   1.407       .  A
C596        H601   1.083       .  S
C597        C598   1.413       .  A
C598        O602   1.372       .  S
C599        C604   1.408       .  A
C599        C608   1.401       .  A
O600        H616   0.992       .  S
O602        H613   0.992       .  S
C604        C605   1.401       .  A
C604        O609   1.372       .  S
C605        C606   1.403       .  A
C605        H610   1.084       .  S
C606        C607   1.407       .  A
C607        C608   1.394       .  A
C607        O611   1.372       .  S
C608        H612   1.084       .  S
O609        H614   0.992       .  S
O611        H615   0.992       .  S
C617        C618   1.404       .  A
C617        C622   1.401       .  A
C617        H627   1.084       .  S
C618        C623   1.482       .  S
C618        C619   1.407       .  A
C619        C620   1.400       .  A
C619        O624   1.372       .  S
C620        C621   1.406       .  A
C620        H625   1.084       .  S
C621        C622   1.411       .  A
C622        O626   1.372       .  S
C623        C628   1.408       .  A
C623        C632   1.401       .  A
O624        H640   0.992       .  S
O626        H637   0.992       .  S
C628        C629   1.401       .  A
C628        O633   1.371       .  S
C629        C630   1.406       .  A
C629        H634   1.083       .  S
C630        C631   1.415       .  A
C631        C632   1.397       .  A
C631        O635   1.372       .  S
C632        H636   1.084       .  S
O633        H638   0.992       .  S
O635        H639   0.992       .  S
C641        C642   1.405       .  A
C641        C646   1.402   1_455  A
C641        H651   1.083       .  S
C642        C647   1.487       .  S
C642        C643   1.410       .  A
C643        C644   1.398       .  A
C643        O648   1.372       .  S
C644        C645   1.404   1_455  A
C644        H649   1.084   1_455  S
C645        C646   1.411       .  A
C646        O650   1.372       .  S
C647        C652   1.411       .  A
C647        C656   1.404       .  A
O648        H664   0.992       .  S
O650        H661   0.992       .  S
C652        C653   1.402       .  A
C652        O657   1.371       .  S
C653        C654   1.403       .  A
C653        H658   1.084       .  S
C654        C655   1.409       .  A
C655        C656   1.399       .  A
C655        O659   1.372       .  S
C656        H660   1.084       .  S
O657        H662   0.992       .  S
O659        H663   0.992       .  S
C665        C666   1.405       .  A
C665        C670   1.402       .  A
C665        H675   1.083       .  S
C666        C671   1.493       .  S
C666        C667   1.413       .  A
C667        C668   1.401       .  A
C667        O672   1.372       .  S
C668        C669   1.405       .  A
C668        H673   1.084       .  S
C669        C670   1.412       .  A
C670        O674   1.372       .  S
C671        C676   1.412       .  A
C671        C680   1.402       .  A
O672        H688   0.992       .  S
O674        H685   0.992       .  S
C676        C677   1.409       .  A
C676        O681   1.372       .  S
C677        C678   1.407       .  A
C677        H682   1.083       .  S
C678        C679   1.415       .  A
C679        C680   1.395       .  A
C679        O683   1.372       .  S
C680        H684   1.083       .  S
O681        H686   0.992       .  S
O683        H687   0.992       .  S
C689        C690   1.399       .  A
C689        C694   1.395       .  A
C689        H699   1.084       .  S
C690        C695   1.474       .  S
C690        C691   1.406       .  A
C691        C692   1.402       .  A
C691        O696   1.371       .  S
C692        C693   1.406       .  A
C692        H697   1.083       .  S
C693        C694   1.413       .  A
C694        O698   1.372       .  S
C695        C700   1.406       .  A
C695        C704   1.402       .  A
O696        H712   0.992       .  S
O698        H709   0.992       .  S
C700        C701   1.399   1_554  A
C700        O705   1.371       .  S
C701        C702   1.402       .  A
C701        H706   1.084       .  S
C702        C703   1.410   1_556  A
C703        C704   1.399       .  A
C703        O707   1.372   1_554  S
C704        H708   1.084       .  S
O705        H710   0.992       .  S
O707        H711   0.992       .  S
C713        C714   1.399       .  A
C713        C718   1.394       .  A
C713        H723   1.084       .  S
C714        C719   1.472       .  S
C714        C715   1.405       .  A
C715        C716   1.404       .  A
C715        O720   1.371       .  S
C716        C717   1.408       .  A
C716        H721   1.083       .  S
C717        C718   1.411       .  A
C718        O722   1.372       .  S
C719        C724   1.405       .  A
C719        C728   1.400       .  A
O720        H736   0.992       .  S
O722        H733   0.991       .  S
C724        C725   1.401       .  A
C724        O729   1.372       .  S
C725        C726   1.407       .  A
C725        H730   1.083       .  S
C726        C727   1.413       .  A
C727        C728   1.397       .  A
C727        O731   1.372       .  S
C728        H732   1.084       .  S
O729        H734   0.992       .  S
O731        H735   0.992       .  S
C737        C738   1.403       .  A
C737        C742   1.403       .  A
C737        H747   1.084       .  S
C738        C743   1.476       .  S
C738        C739   1.402       .  A
C739        C740   1.397       .  A
C739        O744   1.372       .  S
C740        C741   1.408       .  A
C740        H745   1.083       .  S
C741        C742   1.413       .  A
C742        O746   1.372       .  S
C743        C748   1.407       .  A
C743        C752   1.396       .  A
O744        H760   0.992       .  S
O746        H757   0.992       .  S
C748        C749   1.404       .  A
C748        O753   1.371       .  S
C749        C750   1.407       .  A
C749        H754   1.083       .  S
C750        C751   1.418       .  A
C751        C752   1.396       .  A
C751        O755   1.372       .  S
C752        H756   1.084       .  S
O753        H758   0.992       .  S
O755        H759   0.992       .  S
C761        C762   1.404       .  A
C761        C766   1.400       .  A
C761        H771   1.084       .  S
C762        C767   1.481       .  S
C762        C763   1.407       .  A
C763        C764   1.398       .  A
C763        O768   1.373       .  S
C764        C765   1.405       .  A
C764        H769   1.084       .  S
C765        C766   1.411       .  A
C766        O770   1.372       .  S
C767        C772   1.409       .  A
C767        C776   1.401       .  A
O768        H784   0.992       .  S
O770        H781   0.992       .  S
C772        C773   1.400   1_455  A
C772        O777   1.371       .  S
C773        C774   1.405       .  A
C773        H778   1.084       .  S
C774        C775   1.414       .  A
C775        C776   1.397   1_655  A
C775        O779   1.372       .  S
C776        H780   1.084       .  S
O777        H782   0.992       .  S
O779        H783   0.992       .  S
C785        C786   1.397       .  A
C785        C790   1.391   1_556  A
C785        H795   1.084       .  S
C786        C791   1.465       .  S
C786        C787   1.403   1_556  A
C787        C788   1.399       .  A
C787        O792   1.371   1_554  S
C788        C789   1.405       .  A
C788        H793   1.083       .  S
C789        C790   1.414       .  A
C790        O794   1.372       .  S
C791        C796   1.404       .  A
C791        C800   1.397       .  A
O792        H808   0.992   1_556  S
O794        H805   0.992       .  S
C796        C797   1.400       .  A
C796        O801   1.371       .  S
C797        C798   1.406       .  A
C797        H802   1.083       .  S
C798        C799   1.415       .  A
C799        C800   1.392       .  A
C799        O803   1.372       .  S
C800        H804   1.084       .  S
O801        H806   0.992       .  S
O803        H807   0.992       .  S
C809        C810   1.401       .  A
C809        C814   1.400       .  A
C809        H819   1.084       .  S
C810        C815   1.469       .  S
C810        C811   1.404       .  A
C811        C812   1.391       .  A
C811        O816   1.373       .  S
C812        C813   1.406       .  A
C812        H817   1.083       .  S
C813        C814   1.413       .  A
C814        O818   1.371       .  S
C815        C820   1.405       .  A
C815        C824   1.398       .  A
O816        H832   0.992       .  S
O818        H829   0.992       .  S
C820        C821   1.395       .  A
C820        O825   1.372       .  S
C821        C822   1.407       .  A
C821        H826   1.083       .  S
C822        C823   1.414       .  A
C823        C824   1.396       .  A
C823        O827   1.372       .  S
C824        H828   1.084       .  S
O825        H830   0.992       .  S
O827        H831   0.992       .  S
C833        C834   1.406       .  A
C833        C838   1.404       .  A
C833        H843   1.084       .  S
C834        C839   1.491       .  S
C834        C835   1.407       .  A
C835        C836   1.404       .  A
C835        O840   1.372       .  S
C836        C837   1.410       .  A
C836        H841   1.083       .  S
C837        C838   1.413       .  A
C838        O842   1.371       .  S
C839        C844   1.412       .  A
C839        C848   1.401       .  A
O840        H856   0.992       .  S
O842        H853   0.992       .  S
C844        C845   1.407       .  A
C844        O849   1.371       .  S
C845        C846   1.407       .  A
C845        H850   1.083       .  S
C846        C847   1.414       .  A
C847        C848   1.399       .  A
C847        O851   1.372       .  S
C848        H852   1.084       .  S
O849        H854   0.992       .  S
O851        H855   0.992       .  S
C857        C858   1.401   1_556  A
C857        C862   1.398   1_545  A
C857        H867   1.084       .  S
C858        C863   1.477       .  S
C858        C859   1.408   1_545  A
C859        C860   1.398   1_554  A
C859        O864   1.372       .  S
C860        C861   1.403       .  A
C860        H865   1.084   1_556  S
C861        C862   1.413       .  A
C862        O866   1.372       .  S
C863        C868   1.406       .  A
C863        C872   1.401       .  A
O864        H880   0.992       .  S
O866        H877   0.992   1_565  S
C868        C869   1.403       .  A
C868        O873   1.373       .  S
C869        C870   1.406       .  A
C869        H874   1.083       .  S
C870        C871   1.412       .  A
C871        C872   1.393       .  A
C871        O875   1.372       .  S
C872        H876   1.084   1_554  S
O873        H878   0.992       .  S
O875        H879   0.992       .  S
C881        C882   1.399   1_545  A
C881        C886   1.399       .  A
C881        H891   1.084       .  S
C882        C887   1.481       .  S
C882        C883   1.408   1_565  A
C883        C884   1.405       .  A
C883        O888   1.371   1_545  S
C884        C885   1.406       .  A
C884        H889   1.083       .  S
C885        C886   1.414       .  A
C886        O890   1.372       .  S
C887        C892   1.405       .  A
C887        C896   1.401       .  A
O888        H904   0.992       .  S
O890        H901   0.992       .  S
C892        C893   1.401       .  A
C892        O897   1.371       .  S
C893        C894   1.408       .  A
C893        H898   1.083       .  S
C894        C895   1.416       .  A
C895        C896   1.402       .  A
C895        O899   1.372       .  S
C896        H900   1.084       .  S
O897        H902   0.992       .  S
O899        H903   0.992       .  S
C905        C906   1.406       .  A
C905        C910   1.406       .  A
C905        H915   1.082       .  S
C906        C911   1.499       .  S
C906        C907   1.414       .  A
C907        C908   1.401       .  A
C907        O912   1.372       .  S
C908        C909   1.405       .  A
C908        H913   1.084       .  S
C909        C910   1.414       .  A
C910        O914   1.372       .  S
C911        C916   1.414       .  A
C911        C920   1.403       .  A
O912        H928   0.992       .  S
O914        H925   0.992       .  S
C916        C917   1.412       .  A
C916        O921   1.372       .  S
C917        C918   1.408       .  A
C917        H922   1.083       .  S
C918        C919   1.416       .  A
C919        C920   1.395       .  A
C919        O923   1.372       .  S
C920        H924   1.083       .  S
O921        H926   0.992       .  S
O923        H927   0.992       .  S
C929        C930   1.399       .  A
C929        C934   1.398       .  A
C929        H939   1.084       .  S
C930        C935   1.468       .  S
C930        C931   1.403       .  A
C931        C932   1.397       .  A
C931        O936   1.372       .  S
C932        C933   1.407       .  A
C932        H937   1.084       .  S
C933        C934   1.413       .  A
C934        O938   1.371       .  S
C935        C940   1.404       .  A
C935        C944   1.400   1_556  A
O936        H952   0.992       .  S
O938        H949   0.992       .  S
C940        C941   1.393   1_556  A
C940        O945   1.372       .  S
C941        C942   1.404       .  A
C941        H946   1.084       .  S
C942        C943   1.412       .  A
C943        C944   1.401       .  A
C943        O947   1.372       .  S
C944        H948   1.083       .  S
O945        H950   0.992       .  S
O947        H951   0.992       .  S
C953        C954   1.400       .  A
C953        C958   1.396       .  A
C953        H963   1.084       .  S
C954        C959   1.468       .  S
C954        C955   1.403       .  A
C955        C956   1.397       .  A
C955        O960   1.371       .  S
C956        C957   1.405       .  A
C956        H961   1.084       .  S
C957        C958   1.412       .  A
C958        O962   1.372       .  S
C959        C964   1.406       .  A
C959        C968   1.397       .  A
O960        H976   0.992       .  S
O962        H973   0.992       .  S
C964        C965   1.401       .  A
C964        O969   1.371       .  S
C965        C966   1.403       .  A
C965        H970   1.084       .  S
C966        C967   1.411       .  A
C967        C968   1.394       .  A
C967        O971   1.373       .  S
C968        H972   1.084       .  S
O969        H974   0.992       .  S
O971        H975   0.992       .  S
C977        C978   1.403       .  A
C977        C982   1.395       .  A
C977        H987   1.084       .  S
C978        C983   1.486       .  S
C978        C979   1.411       .  A
C979        C980   1.403       .  A
C979        O984   1.372       .  S
C980        C981   1.405       .  A
C980        H985   1.084       .  S
C981        C982   1.410       .  A
C982        O986   1.372       .  S
C983        C988   1.411       .  A
C983        C992   1.405       .  A
O984       H1000   0.992       .  S
O986        H997   0.992       .  S
C988        C989   1.397       .  A
C988        O993   1.372       .  S
C989        C990   1.402       .  A
C989        H994   1.084       .  S
C990        C991   1.409       .  A
C991        C992   1.402       .  A
C991        O995   1.372       .  S
C992        H996   1.083       .  S
O993        H998   0.992       .  S
O995        H999   0.992       .  S
C1001      C1002   1.405       .  A
C1001      C1006   1.403       .  A
C1001      H1011   1.083       .  S
C1002      C1007   1.491       .  S
C1002      C1003   1.409       .  A
C1003      C1004   1.403       .  A
C1003      O1008   1.371       .  S
C1004      C1005   1.408       .  A
C1004      H1009   1.083       .  S
C1005      C1006   1.413       .  A
C1006      O1010   1.372       .  S
C1007      C1012   1.408       .  A
C1007      C1016   1.406       .  A
O1008      H1024   0.992       .  S
O1010      H1021   0.992       .  S
C1012      C1013   1.402       .  A
C1012      O1017   1.372       .  S
C1013      C1014   1.408   1_545  A
C1013      H1018   1.084   1_545  S
C1014      C1015   1.411   1_565  A
C1015      C1016   1.405       .  A
C1015      O1019   1.371   1_545  S
C1016      H1020   1.083       .  S
O1017      H1022   0.992       .  S
O1019      H1023   0.992   1_565  S
C1025      C1026   1.400       .  A
C1025      C1030   1.393   1_556  A
C1025      H1035   1.084       .  S
C1026      C1031   1.480       .  S
C1026      C1027   1.409   1_556  A
C1027      C1028   1.405       .  A
C1027      O1032   1.373   1_554  S
C1028      C1029   1.407       .  A
C1028      H1033   1.083       .  S
C1029      C1030   1.413       .  A
C1030      O1034   1.372       .  S
C1031      C1036   1.407       .  A
C1031      C1040   1.403       .  A
O1032      H1048   0.992       .  S
O1034      H1045   0.992       .  S
C1036      C1037   1.398       .  A
C1036      O1041   1.372       .  S
C1037      C1038   1.408       .  A
C1037      H1042   1.083       .  S
C1038      C1039   1.413       .  A
C1039      C1040   1.399       .  A
C1039      O1043   1.372       .  S
C1040      H1044   1.084       .  S
O1041      H1046   0.992       .  S
O1043      H1047   0.992       .  S
C1049      C1050   1.399       .  A
C1049      C1054   1.393       .  A
C1049      H1059   1.084       .  S
C1050      C1055   1.474       .  S
C1050      C1051   1.405       .  A
C1051      C1052   1.403       .  A
C1051      O1056   1.372       .  S
C1052      C1053   1.409       .  A
C1052      H1057   1.083       .  S
C1053      C1054   1.412       .  A
C1054      O1058   1.371       .  S
C1055      C1060   1.407       .  A
C1055      C1064   1.401       .  A
O1056      H1072   0.992       .  S
O1058      H1069   0.992       .  S
C1060      C1061   1.402       .  A
C1060      O1065   1.371       .  S
C1061      C1062   1.403       .  A
C1061      H1066   1.084       .  S
C1062      C1063   1.408       .  A
C1063      C1064   1.395       .  A
C1063      O1067   1.372       .  S
C1064      H1068   1.084       .  S
O1065      H1070   0.992       .  S
O1067      H1071   0.992       .  S
C1073      C1074   1.401       .  A
C1073      C1078   1.396       .  A
C1073      H1083   1.084       .  S
C1074      C1079   1.477       .  S
C1074      C1075   1.407       .  A
C1075      C1076   1.400       .  A
C1075      O1080   1.373       .  S
C1076      C1077   1.405       .  A
C1076      H1081   1.084       .  S
C1077      C1078   1.412       .  A
C1078      O1082   1.372       .  S
C1079      C1084   1.407       .  A
C1079      C1088   1.402       .  A
O1080      H1096   0.992       .  S
O1082      H1093   0.992       .  S
C1084      C1085   1.396       .  A
C1084      O1089   1.372       .  S
C1085      C1086   1.406       .  A
C1085      H1090   1.084       .  S
C1086      C1087   1.411       .  A
C1087      C1088   1.399       .  A
C1087      O1091   1.371       .  S
C1088      H1092   1.084       .  S
O1089      H1094   0.992       .  S
O1091      H1095   0.992       .  S
C1097      C1098   1.400       .  A
C1097      C1102   1.394       .  A
C1097      H1107   1.084   1_554  S
C1098      C1103   1.470       .  S
C1098      C1099   1.406       .  A
C1099      C1100   1.401       .  A
C1099      O1104   1.371       .  S
C1100      C1101   1.402       .  A
C1100      H1105   1.084       .  S
C1101      C1102   1.408       .  A
C1102      O1106   1.372       .  S
C1103      C1108   1.406   1_454  A
C1103      C1112   1.401   1_455  A
O1104      H1120   0.992       .  S
O1106      H1117   0.992       .  S
C1108      C1109   1.402       .  A
C1108      O1113   1.371   1_655  S
C1109      C1110   1.403       .  A
C1109      H1114   1.084       .  S
C1110      C1111   1.407       .  A
C1111      C1112   1.394   1_556  A
C1111      O1115   1.373       .  S
C1112      H1116   1.084       .  S
O1113      H1118   0.992       .  S
O1115      H1119   0.992   1_556  S
C1121      C1122   1.402   1_455  A
C1121      C1126   1.399       .  A
C1121      H1131   1.084   1_455  S
C1122      C1127   1.480       .  S
C1122      C1123   1.406   1_655  A
C1123      C1124   1.401       .  A
C1123      O1128   1.372   1_455  S
C1124      C1125   1.407       .  A
C1124      H1129   1.083       .  S
C1125      C1126   1.414       .  A
C1126      O1130   1.372       .  S
C1127      C1132   1.408       .  A
C1127      C1136   1.401       .  A
O1128      H1144   0.992   1_655  S
O1130      H1141   0.992       .  S
C1132      C1133   1.401       .  A
C1132      O1137   1.371       .  S
C1133      C1134   1.404       .  A
C1133      H1138   1.083       .  S
C1134      C1135   1.412       .  A
C1135      C1136   1.397       .  A
C1135      O1139   1.372       .  S
C1136      H1140   1.084       .  S
O1137      H1142   0.992       .  S
O1139      H1143   0.992       .  S
C1145      C1146   1.405       .  A
C1145      C1150   1.399       .  A
C1145      H1155   1.083       .  S
C1146      C1151   1.488       .  S
C1146      C1147   1.413       .  A
C1147      C1148   1.400       .  A
C1147      O1152   1.372       .  S
C1148      C1149   1.401       .  A
C1148      H1153   1.084       .  S
C1149      C1150   1.409       .  A
C1150      O1154   1.372       .  S
C1151      C1156   1.412       .  A
C1151      C1160   1.402       .  A
O1152      H1168   0.992       .  S
O1154      H1165   0.992       .  S
C1156      C1157   1.407       .  A
C1156      O1161   1.372       .  S
C1157      C1158   1.404       .  A
C1157      H1162   1.083       .  S
C1158      C1159   1.411       .  A
C1159      C1160   1.395       .  A
C1159      O1163   1.373       .  S
C1160      H1164   1.083       .  S
O1161      H1166   0.992       .  S
O1163      H1167   0.992       .  S
C1169      C1170   1.400       .  A
C1169      C1174   1.398       .  A
C1169      H1179   1.084       .  S
C1170      C1175   1.466       .  S
C1170      C1171   1.403       .  A
C1171      C1172   1.394       .  A
C1171      O1176   1.372       .  S
C1172      C1173   1.404       .  A
C1172      H1177   1.084       .  S
C1173      C1174   1.411       .  A
C1174      O1178   1.372       .  S
C1175      C1180   1.404       .  A
C1175      C1184   1.399   1_556  A
O1176      H1192   0.992       .  S
O1178      H1189   0.992       .  S
C1180      C1181   1.395   1_556  A
C1180      O1185   1.372       .  S
C1181      C1182   1.404       .  A
C1181      H1186   1.084       .  S
C1182      C1183   1.411       .  A
C1183      C1184   1.398       .  A
C1183      O1187   1.372       .  S
C1184      H1188   1.084   1_554  S
O1185      H1190   0.992       .  S
O1187      H1191   0.992       .  S
C1193      C1194   1.399       .  A
C1193      C1198   1.397       .  A
C1193      H1203   1.084       .  S
C1194      C1199   1.466       .  S
C1194      C1195   1.402       .  A
C1195      C1196   1.395       .  A
C1195      O1200   1.372       .  S
C1196      C1197   1.407       .  A
C1196      H1201   1.083       .  S
C1197      C1198   1.414       .  A
C1198      O1202   1.371       .  S
C1199      C1204   1.402       .  A
C1199      C1208   1.397       .  A
O1200      H1216   0.992       .  S
O1202      H1213   0.992       .  S
C1204      C1205   1.400       .  A
C1204      O1209   1.371       .  S
C1205      C1206   1.409       .  A
C1205      H1210   1.083       .  S
C1206      C1207   1.413       .  A
C1207      C1208   1.393       .  A
C1207      O1211   1.372       .  S
C1208      H1212   1.084       .  S
O1209      H1214   0.992       .  S
O1211      H1215   0.992       .  S
C1217      C1218   1.403       .  A
C1217      C1222   1.401       .  A
C1217      H1227   1.083       .  S
C1218      C1223   1.484       .  S
C1218      C1219   1.409       .  A
C1219      C1220   1.399       .  A
C1219      O1224   1.372       .  S
C1220      C1221   1.406       .  A
C1220      H1225   1.084       .  S
C1221      C1222   1.411       .  A
C1222      O1226   1.371       .  S
C1223      C1228   1.409       .  A
C1223      C1232   1.401       .  A
O1224      H1240   0.992       .  S
O1226      H1237   0.992       .  S
C1228      C1229   1.402       .  A
C1228      O1233   1.371       .  S
C1229      C1230   1.406       .  A
C1229      H1234   1.083       .  S
C1230      C1231   1.415       .  A
C1231      C1232   1.397       .  A
C1231      O1235   1.372       .  S
C1232      H1236   1.084       .  S
O1233      H1238   0.992       .  S
O1235      H1239   0.992       .  S
C1241      C1242   1.408       .  A
C1241      C1246   1.407       .  A
C1241      H1251   1.083       .  S
C1242      C1247   1.494   1_545  S
C1242      C1243   1.409       .  A
C1243      C1244   1.400       .  A
C1243      O1248   1.372       .  S
C1244      C1245   1.407       .  A
C1244      H1249   1.084       .  S
C1245      C1246   1.411       .  A
C1246      O1250   1.371       .  S
C1247      C1252   1.411       .  A
C1247      C1256   1.404       .  A
O1248      H1264   0.992   1_545  S
O1250      H1261   0.992       .  S
C1252      C1253   1.406       .  A
C1252      O1257   1.372       .  S
C1253      C1254   1.407       .  A
C1253      H1258   1.083       .  S
C1254      C1255   1.415       .  A
C1255      C1256   1.401       .  A
C1255      O1259   1.372       .  S
C1256      H1260   1.083       .  S
O1257      H1262   0.992       .  S
O1259      H1263   0.992       .  S
C1265      C1266   1.403   1_565  A
C1265      C1270   1.395       .  A
C1265      H1275   1.084   1_554  S
C1266      C1271   1.478       .  S
C1266      C1267   1.406       .  A
C1267      C1268   1.401   1_545  A
C1267      O1272   1.374       .  S
C1268      C1269   1.406       .  A
C1268      H1273   1.083       .  S
C1269      C1270   1.410       .  A
C1270      O1274   1.372       .  S
C1271      C1276   1.410       .  A
C1271      C1280   1.402   1_554  A
O1272      H1288   0.992       .  S
O1274      H1285   0.992       .  S
C1276      C1277   1.398   1_554  A
C1276      O1281   1.372       .  S
C1277      C1278   1.402       .  A
C1277      H1282   1.084   1_556  S
C1278      C1279   1.413       .  A
C1279      C1280   1.398       .  A
C1279      O1283   1.372       .  S
C1280      H1284   1.084       .  S
O1281      H1286   0.992       .  S
O1283      H1287   0.992       .  S
C1289      C1290   1.404       .  A
C1289      C1294   1.401       .  A
C1289      H1299   1.084       .  S
C1290      C1295   1.478       .  S
C1290      C1291   1.405       .  A
C1291      C1292   1.395       .  A
C1291      O1296   1.372       .  S
C1292      C1293   1.406       .  A
C1292      H1297   1.083       .  S
C1293      C1294   1.413       .  A
C1294      O1298   1.371       .  S
C1295      C1300   1.408       .  A
C1295      C1304   1.400       .  A
O1296      H1312   0.992       .  S
O1298      H1309   0.992       .  S
C1300      C1301   1.399       .  A
C1300      O1305   1.371       .  S
C1301      C1302   1.406   1_554  A
C1301      H1306   1.083   1_554  S
C1302      C1303   1.414   1_556  A
C1303      C1304   1.397       .  A
C1303      O1307   1.372   1_554  S
C1304      H1308   1.084       .  S
O1305      H1310   0.992       .  S
O1307      H1311   0.992   1_556  S
C1313      C1314   1.398       .  A
C1313      C1318   1.396       .  A
C1313      H1323   1.084       .  S
C1314      C1319   1.464       .  S
C1314      C1315   1.404       .  A
C1315      C1316   1.396       .  A
C1315      O1320   1.372       .  S
C1316      C1317   1.404       .  A
C1316      H1321   1.084       .  S
C1317      C1318   1.412       .  A
C1318      O1322   1.372       .  S
C1319      C1324   1.402       .  A
C1319      C1328   1.399       .  A
O1320      H1336   0.992       .  S
O1322      H1333   0.992       .  S
C1324      C1325   1.390       .  A
C1324      O1329   1.373       .  S
C1325      C1326   1.404       .  A
C1325      H1330   1.084       .  S
C1326      C1327   1.414       .  A
C1327      C1328   1.401       .  A
C1327      O1331   1.371       .  S
C1328      H1332   1.083       .  S
O1329      H1334   0.992       .  S
O1331      H1335   0.992       .  S
C1337      C1338   1.406       .  A
C1337      C1342   1.399       .  A
C1337      H1347   1.083       .  S
C1338      C1343   1.480       .  S
C1338      C1339   1.408       .  A
C1339      C1340   1.395       .  A
C1339      O1344   1.372       .  S
C1340      C1341   1.404       .  A
C1340      H1345   1.084       .  S
C1341      C1342   1.406       .  A
C1342      O1346   1.372       .  S
C1343      C1348   1.408       .  A
C1343      C1352   1.403       .  A
O1344      H1360   0.992       .  S
O1346      H1357   0.992       .  S
C1348      C1349   1.399       .  A
C1348      O1353   1.372       .  S
C1349      C1350   1.403       .  A
C1349      H1354   1.084       .  S
C1350      C1351   1.410       .  A
C1351      C1352   1.396       .  A
C1351      O1355   1.372       .  S
C1352      H1356   1.084       .  S
O1353      H1358   0.992       .  S
O1355      H1359   0.992       .  S
C1361      C1362   1.403   1_455  A
C1361      C1366   1.399       .  A
C1361      H1371   1.084   1_455  S
C1362      C1367   1.480       .  S
C1362      C1363   1.406   1_655  A
C1363      C1364   1.400       .  A
C1363      O1368   1.372   1_455  S
C1364      C1365   1.407       .  A
C1364      H1369   1.083       .  S
C1365      C1366   1.413       .  A
C1366      O1370   1.372       .  S
C1367      C1372   1.409       .  A
C1367      C1376   1.400       .  A
O1368      H1384   0.992   1_655  S
O1370      H1381   0.992       .  S
C1372      C1373   1.402       .  A
C1372      O1377   1.371       .  S
C1373      C1374   1.404       .  A
C1373      H1378   1.083       .  S
C1374      C1375   1.413       .  A
C1375      C1376   1.395       .  A
C1375      O1379   1.372       .  S
C1376      H1380   1.084       .  S
O1377      H1382   0.992       .  S
O1379      H1383   0.991       .  S
C1385      C1386   1.403       .  A
C1385      C1390   1.402       .  A
C1385      H1395   1.083   1_655  S
C1386      C1391   1.472   1_654  S
C1386      C1387   1.406       .  A
C1387      C1388   1.396       .  A
C1387      O1392   1.373   1_554  S
C1388      C1389   1.402       .  A
C1388      H1393   1.084       .  S
C1389      C1390   1.407       .  A
C1390      O1394   1.371       .  S
C1391      C1396   1.405   1_556  A
C1391      C1400   1.404       .  A
O1392      H1408   0.992       .  S
O1394      H1405   0.992       .  S
C1396      C1397   1.392   1_554  A
C1396      O1401   1.373       .  S
C1397      C1398   1.401       .  A
C1397      H1402   1.084       .  S
C1398      C1399   1.409       .  A
C1399      C1400   1.405       .  A
C1399      O1403   1.371       .  S
C1400      H1404   1.083       .  S
O1401      H1406   0.992       .  S
O1403      H1407   0.992       .  S
C1409      C1410   1.405       .  A
C1409      C1414   1.400       .  A
C1409      H1419   1.083       .  S
C1410      C1415   1.488       .  S
C1410      C1411   1.412       .  A
C1411      C1412   1.398       .  A
C1411      O1416   1.372       .  S
C1412      C1413   1.401       .  A
C1412      H1417   1.084       .  S
C1413      C1414   1.409       .  A
C1414      O1418   1.372       .  S
C1415      C1420   1.411       .  A
C1415      C1424   1.402       .  A
O1416      H1432   0.992       .  S
O1418      H1429   0.992       .  S
C1420      C1421   1.406       .  A
C1420      O1425   1.372       .  S
C1421      C1422   1.404       .  A
C1421      H1426   1.083       .  S
C1422      C1423   1.413       .  A
C1423      C1424   1.395       .  A
C1423      O1427   1.373       .  S
C1424      H1428   1.083       .  S
O1425      H1430   0.992       .  S
O1427      H1431   0.992       .  S
C1433      C1434   1.400       .  A
C1433      C1438   1.399   1_554  A
C1433      H1443   1.084       .  S
C1434      C1439   1.469       .  S
C1434      C1435   1.404       .  A
C1435      C1436   1.395       .  A
C1435      O1440   1.372       .  S
C1436      C1437   1.405   1_554  A
C1436      H1441   1.084       .  S
C1437      C1438   1.412       .  A
C1438      O1442   1.372       .  S
C1439      C1444   1.404       .  A
C1439      C1448   1.402       .  A
O1440      H1456   0.992       .  S
O1442      H1453   0.992       .  S
C1444      C1445   1.395       .  A
C1444      O1449   1.372       .  S
C1445      C1446   1.403       .  A
C1445      H1450   1.084       .  S
C1446      C1447   1.407       .  A
C1447      C1448   1.399       .  A
C1447      O1451   1.372       .  S
C1448      H1452   1.084       .  S
O1449      H1454   0.992       .  S
O1451      H1455   0.992       .  S
C1457      C1458   1.400       .  A
C1457      C1462   1.398       .  A
C1457      H1467   1.084       .  S
C1458      C1463   1.469       .  S
C1458      C1459   1.404       .  A
C1459      C1460   1.394       .  A
C1459      O1464   1.373       .  S
C1460      C1461   1.405       .  A
C1460      H1465   1.084       .  S
C1461      C1462   1.413       .  A
C1462      O1466   1.371       .  S
C1463      C1468   1.404       .  A
C1463      C1472   1.401       .  A
O1464      H1480   0.992       .  S
O1466      H1477   0.992       .  S
C1468      C1469   1.388       .  A
C1468      O1473   1.372       .  S
C1469      C1470   1.405       .  A
C1469      H1474   1.084       .  S
C1470      C1471   1.414       .  A
C1471      C1472   1.402       .  A
C1471      O1475   1.371       .  S
C1472      H1476   1.083       .  S
O1473      H1478   0.992       .  S
O1475      H1479   0.992       .  S
C1481      C1482   1.403       .  A
C1481      C1486   1.397       .  A
C1481      H1491   1.083       .  S
C1482      C1487   1.490       .  S
C1482      C1483   1.412       .  A
C1483      C1484   1.403       .  A
C1483      O1488   1.371       .  S
C1484      C1485   1.405       .  A
C1484      H1489   1.083       .  S
C1485      C1486   1.413       .  A
C1486      O1490   1.372       .  S
C1487      C1492   1.411       .  A
C1487      C1496   1.407       .  A
O1488      H1504   0.992       .  S
O1490      H1501   0.992       .  S
C1492      C1493   1.396       .  A
C1492      O1497   1.372       .  S
C1493      C1494   1.404       .  A
C1493      H1498   1.084       .  S
C1494      C1495   1.411       .  A
C1495      C1496   1.404       .  A
C1495      O1499   1.372       .  S
C1496      H1500   1.083       .  S
O1497      H1502   0.992       .  S
O1499      H1503   0.992       .  S
