geometry optimzed in LAMMPS
_audit_creation_date              2020-12-01 
_audit_creation_method            'lammps2cif' 
_symmetry_space_group_name_H-M    'P1' 
_symmetry_Int_Tables_number       1 
_symmetry_cell_setting            triclinic 
loop_ 
_symmetry_equiv_pos_as_xyz 
  x,y,z 
_cell_length_a                    52.4237409 
_cell_length_b                    52.942448842792835 
_cell_length_c                    36.37120426538447 
_cell_angle_alpha                 90.1427226316302 
_cell_angle_beta                  90.42980959907594 
_cell_angle_gamma                 119.55025343312786 
loop_ 
_atom_site_label 
_atom_site_type_symbol 
_atom_site_fract_x 
_atom_site_fract_y 
_atom_site_fract_z 
_atom_site_charge 
O1          O  0.12436245  0.35622167  0.33647138    -0.84100
O2          O  0.12018468  0.38600655  0.27811445    -0.81100
C3          C  0.11037730  0.39824406  0.25755005     0.99400
O4          O  0.09609648  0.40964156  0.27054796    -0.81200
O5          O  0.04263753  0.36038706  0.28509175    -0.83800
C6          C  0.02395933  0.33817892  0.30217147     1.03900
O7          O  0.02942817  0.33287586  0.33437933    -0.76600
O8          O  0.07726912  0.32575213  0.33524634    -0.76800
C9          C  0.10303462  0.33168199  0.32797794     1.03900
O10         O  0.13267771  0.40387190  0.38298279    -0.84100
O11         O  0.13437067  0.43579588  0.32521351    -0.81100
C12         C  0.12021937  0.44755162  0.33785736     0.99400
O13         O  0.09262637  0.43348041  0.33954656    -0.81200
O14         O  0.03686245  0.38618557  0.34897906    -0.83800
C15         C  0.03485166  0.37841651  0.38194416     1.03900
O16         O  0.05308081  0.37203436  0.39574737    -0.76600
O17         O  0.09926435  0.36131295  0.40308238    -0.76700
C18         C  0.12145290  0.38624540  0.40875958     1.03800
Cr19       Cr  0.12497283  0.39430592  0.33100384     1.93700
Cr20       Cr  0.06875269  0.39648356  0.31281604     1.93200
Cr21       Cr  0.06651772  0.35006770  0.36519515     1.39100
O22         O  0.08662958  0.38018153  0.33641280    -1.21800
O23         O  0.35750605  0.23116804  0.25386710    -0.84100
O24         O  0.39481492  0.26666354  0.20240764    -0.81100
C25         C  0.40439714  0.28870092  0.18229782     0.99400
O26         O  0.41433092  0.31398490  0.19580501    -0.81200
O27         O  0.36807460  0.32148528  0.21291239    -0.83800
C28         C  0.34572945  0.31865648  0.22910012     1.03900
O29         O  0.33860888  0.30617426  0.25969225    -0.76600
O30         O  0.32918059  0.25058951  0.24749072    -0.76800
C31         C  0.33404528  0.22979776  0.24182273     1.03900
O32         O  0.40141924  0.26550952  0.31061051    -0.84100
O33         O  0.44068824  0.29709414  0.25619296    -0.81100
C34         C  0.45365339  0.32367646  0.26531413     0.99400
O35         O  0.43993499  0.33753985  0.26681734    -0.81200
O36         O  0.39388277  0.34658486  0.28313702    -0.83800
C37         C  0.38463593  0.33753962  0.31527119     1.03900
O38         O  0.37242454  0.31082677  0.32282759    -0.76600
O39         O  0.35534918  0.25257392  0.31747509    -0.76700
C40         C  0.37914633  0.25616505  0.33076953     1.03800
Cr41       Cr  0.39773095  0.26702171  0.25631425     1.93700
Cr42       Cr  0.40276253  0.32705675  0.24121731     1.93200
Cr43       Cr  0.35132983  0.28071903  0.28494066     1.39100
O44         O  0.38421143  0.29184543  0.26062330    -1.21800
O45         O  0.24857789  0.38155340  0.13209539    -0.84100
O46         O  0.29522558  0.37324185  0.11599079    -0.81100
C47         C  0.30998827  0.39361817  0.09402424     0.99400
O48         O  0.32504242  0.41941160  0.10520283    -0.81200
O49         O  0.33975783  0.46798697  0.14499344    -0.83800
C50         C  0.32092305  0.47542328  0.13704392     1.03900
O51         O  0.29459805  0.46008458  0.14748454    -0.76600
O52         O  0.24462662  0.41032085  0.17214399    -0.76800
C53         C  0.23594440  0.39516177  0.14305691     1.03900
O54         O  0.25340434  0.36889668  0.20876493    -0.84100
O55         O  0.30189724  0.36488177  0.19222734    -0.81100
C56         C  0.32812309  0.37327924  0.18376053     0.99400
O57         O  0.34255263  0.39597968  0.16509090    -0.81200
O58         O  0.35229668  0.44432349  0.20783702    -0.83800
C59         C  0.34671959  0.46280705  0.22226113     1.03900
O60         O  0.32324642  0.46283283  0.21448288    -0.76600
O61         O  0.27773570  0.41072619  0.23726240    -0.76700
C62         C  0.26323157  0.38329586  0.23824334     1.03800
Cr63       Cr  0.27646360  0.37515336  0.16287754     1.93700
Cr64       Cr  0.33692932  0.43028161  0.15693834     1.93200
Cr65       Cr  0.28570449  0.43403607  0.19136389     1.39100
O66         O  0.29973953  0.41314574  0.17039440    -1.21800
O67         O  0.25162978  0.35047666  0.44568435    -0.84100
O68         O  0.29450750  0.40581432  0.46627089    -0.81100
C69         C  0.31050817  0.40164796  0.48871114     0.99400
O70         O  0.32687119  0.39198566  0.47798063    -0.81200
O71         O  0.34589545  0.36138639  0.43679777    -0.83800
C72         C  0.32838062  0.33461403  0.44155264     1.03900
O73         O  0.30229625  0.32319542  0.42920924    -0.76600
O74         O  0.25125417  0.32145763  0.40243545    -0.76800
C75         C  0.24111033  0.32537339  0.43186627     1.03900
O76         O  0.25599085  0.37041482  0.37034197    -0.84100
O77         O  0.30132817  0.42316423  0.39126435    -0.81100
C78         C  0.32702501  0.44147083  0.40119449     0.99400
O79         O  0.34244725  0.43385089  0.42001110    -0.81200
O80         O  0.35735997  0.39962544  0.37642999    -0.83800
C81         C  0.35404046  0.37720930  0.35981882     1.03900
O82         O  0.33167168  0.35286397  0.36514113    -0.76600
O83         O  0.28394440  0.35710878  0.34126449    -0.76700
C84         C  0.26683032  0.36755717  0.34074014     1.03800
Cr85       Cr  0.27774969  0.38630252  0.41782206     1.93700
Cr86       Cr  0.34018880  0.39521054  0.42649047     1.93200
Cr87       Cr  0.29279961  0.34116999  0.38627193     1.39100
O88         O  0.30366059  0.37430675  0.41019527    -1.21800
O89         O  0.15064302  0.27105926  0.49754629    -0.84100
O90         O  0.11343962  0.23119103  0.44538784    -0.81100
C91         C  0.09990767  0.20693409  0.42894337     0.99400
O92         O  0.09029360  0.18355049  0.44655571    -0.81200
O93         O  0.14052656  0.18009598  0.46175908    -0.83800
C94         C  0.16358821  0.18421255  0.47821727     1.03900
O95         O  0.17108642  0.19776948  0.50854676    -0.76600
O96         O  0.18067002  0.25325875  0.49675502    -0.76800
C97         C  0.17527882  0.27350423  0.48971009     1.03900
O98         O  0.10630021  0.23203547  0.05400400    -0.84100
O99         O  0.06584260  0.19892811  0.00187003    -0.81100
C100        C  0.05410465  0.17443697  0.01745600     0.99400
O101        O  0.06740788  0.16010755  0.01947674    -0.81200
O102        O  0.11344449  0.14876876  0.02588667    -0.83800
C103        C  0.12415334  0.15784195  0.05751449     1.03900
O104        O  0.13577914  0.18431706  0.06575595    -0.76600
O105        O  0.15146114  0.24162639  0.06389818    -0.76700
C106        C  0.12795223  0.23989490  0.07557192     1.03800
Cr107      Cr  0.11108777  0.23466774  0.50009666     1.93700
Cr108      Cr  0.10665541  0.17477075  0.49120482     1.93200
Cr109      Cr  0.15527643  0.21447949  0.02819564     1.39100
O110        O  0.12172156  0.20354531  0.00506019    -1.21800
O111        O  0.38312651  0.14218161  0.06190237    -0.84100
O112        O  0.37509890  0.09060200  0.03706584    -0.81100
C113        C  0.39515777  0.09697341  0.01365648     0.99400
O114        O  0.42121746  0.10517818  0.02385689    -0.81200
O115        O  0.47162855  0.13276716  0.06596945    -0.83800
C116        C  0.48085763  0.15929592  0.06015017     1.03900
O117        O  0.46609370  0.17083379  0.07097744    -0.76600
O118        O  0.41868173  0.17480110  0.09657683    -0.76800
C119        C  0.39986546  0.16820395  0.07104272     1.03900
O120        O  0.37284546  0.12113894  0.13701710    -0.84100
O121        O  0.36813715  0.07036424  0.11308243    -0.81100
C122        C  0.37519462  0.05265244  0.10011141     0.99400
O123        O  0.39581706  0.06107511  0.07759062    -0.81200
O124        O  0.44408655  0.09414198  0.12432070    -0.83800
C125        C  0.46272101  0.11599635  0.14256883     1.03900
O126        O  0.46621031  0.14107656  0.13677538    -0.76600
O127        O  0.41706826  0.14105442  0.16122598    -0.76700
C128        C  0.38956092  0.12869695  0.16493905     1.03800
Cr129      Cr  0.37795174  0.10721120  0.08775584     1.93700
Cr130      Cr  0.43175023  0.09987591  0.07441223     1.93200
Cr131      Cr  0.43983453  0.15432427  0.11465111     1.39100
O132        O  0.41644834  0.12066291  0.09231461    -1.21800
O133        O  0.26622888  0.12176371  0.40068887    -0.84100
O134        O  0.22285058  0.12960958  0.37284303    -0.81100
C135        C  0.20849669  0.11023459  0.34855159     0.99400
O136        O  0.18945014  0.08475485  0.35738677    -0.81200
O137        O  0.16463228  0.03313044  0.39503074    -0.83800
C138        C  0.18179219  0.02392346  0.38630837     1.03900
O139        O  0.20826908  0.03808817  0.39639021    -0.76600
O140        O  0.25998248  0.08115076  0.42467524    -0.76800
C141        C  0.27411139  0.10305731  0.40463123     1.03900
O142        O  0.25000041  0.12718973  0.47617620    -0.84100
O143        O  0.20656662  0.13534593  0.44850540    -0.81100
C144        C  0.18272466  0.13010914  0.43373562     0.99400
O145        O  0.17028674  0.10945203  0.41129070    -0.81200
O146        O  0.15523546  0.06053535  0.45589382    -0.83800
C147        C  0.15812087  0.04068756  0.47137168     1.03900
O148        O  0.17960181  0.03677545  0.46433719    -0.76600
O149        O  0.23031594  0.08120706  0.49186861    -0.76700
C150        C  0.24329841  0.10780803  0.50050359     1.03800
Cr151      Cr  0.23433593  0.12521851  0.42472751     1.93700
Cr152      Cr  0.17313917  0.07340988  0.40666981     1.93200
Cr153      Cr  0.21901925  0.06168792  0.44291504     1.39100
O154        O  0.20921797  0.08702728  0.42509302    -1.21800
O155        O  0.34970747  0.10748600  0.34876137    -0.84100
O156        O  0.38388874  0.10100034  0.40170272    -0.81100
C157        C  0.39955817  0.09203832  0.41708207     0.99400
O158        O  0.41192200  0.08134737  0.39819829    -0.81200
O159        O  0.36311476  0.02951354  0.37728706    -0.83800
C160        C  0.34126879  0.01126460  0.35866422     1.03900
O161        O  0.33530778  0.01794835  0.32751300    -0.76600
O162        O  0.32200936  0.06101932  0.33690347    -0.76800
C163        C  0.32540226  0.08420248  0.35096643     1.03900
O164        O  0.39827972  0.12604356  0.29724459    -0.84100
O165        O  0.43308933  0.12453138  0.35069419    -0.81100
C166        C  0.44616431  0.11336306  0.33365236     0.99400
O167        O  0.43371271  0.08657001  0.32666018    -0.81200
O168        O  0.38947600  0.03135671  0.30973396    -0.83800
C169        C  0.38279922  0.03303287  0.27688642     1.03900
O170        O  0.37404661  0.05048413  0.26821099    -0.76600
O171        O  0.35731003  0.09190953  0.27287731    -0.76700
C172        C  0.38150174  0.11533348  0.26978341     1.03800
Cr173      Cr  0.39015814  0.11208668  0.34861931     1.93700
Cr174      Cr  0.39817377  0.05866394  0.35172442     1.93200
Cr175      Cr  0.34929819  0.05700000  0.30364245     1.39100
O176        O  0.37904275  0.07595537  0.33462434    -1.21800
O177        O  0.15900748  0.39507067  0.09198801    -0.84100
O178        O  0.12435959  0.40324534  0.14199311    -0.81100
C179        C  0.10894815  0.41280350  0.15628475     0.99400
O180        O  0.09625548  0.42305815  0.13676385    -0.81200
O181        O  0.14285814  0.47506346  0.11862046    -0.83800
C182        C  0.16670550  0.49301391  0.10413629     1.03900
O183        O  0.17551972  0.48646787  0.07506072    -0.76600
O184        O  0.18690340  0.44209547  0.08867579    -0.76800
C185        C  0.18308884  0.41780659  0.09888405     1.03900
O186        O  0.11205577  0.37842930  0.03885214    -0.84100
O187        O  0.07588670  0.37939902  0.09082974    -0.81100
C188        C  0.06244624  0.38974365  0.07272990     0.99400
O189        O  0.07549020  0.41586928  0.06270775    -0.81200
O190        O  0.12004119  0.47187040  0.04675586    -0.83800
C191        C  0.12979679  0.47045331  0.01565456     1.03900
O192        O  0.14140222  0.45481168  0.01092172    -0.76600
O193        O  0.15544618  0.41218887  0.02055731    -0.76700
C194        C  0.13098254  0.38937358  0.01417509     1.03800
Cr195      Cr  0.11886304  0.39176798  0.09000409     1.93700
Cr196      Cr  0.11009081  0.44500776  0.09000374     1.93200
Cr197      Cr  0.16267571  0.44739424  0.05071266     1.39100
O198        O  0.13063273  0.42817702  0.07676010    -1.21800
O199        O  0.10905336  0.26260440  0.27035960    -0.84100
O200        O  0.12371976  0.22458650  0.29846838    -0.81100
C201        C  0.10521041  0.21059066  0.32347604     0.99400
O202        O  0.08010763  0.18968589  0.31533057    -0.81200
O203        O  0.02756264  0.16092380  0.27894027    -0.83800
C204        C  0.01722555  0.17691640  0.28829584     1.03900
O205        O  0.02885446  0.20254035  0.27649014    -0.76600
O206        O  0.06818022  0.25314699  0.24226695    -0.76800
C207        C  0.08901337  0.26853677  0.26388541     1.03900
O208        O  0.11471108  0.24586530  0.19425329    -0.84100
O209        O  0.12916414  0.20710984  0.22268867    -0.81100
C210        C  0.12553131  0.18407657  0.23732120     0.99400
O211        O  0.10609633  0.17179568  0.26108819    -0.81200
O212        O  0.05446521  0.15137496  0.21752600    -0.83800
C213        C  0.03274687  0.15159219  0.20216105     1.03900
O214        O  0.02599563  0.17083003  0.21034981    -0.76600
O215        O  0.06772236  0.22035067  0.17948253    -0.76700
C216        C  0.09415083  0.23557144  0.17034161     1.03800
Cr217      Cr  0.11616448  0.23295415  0.24626837     1.93700
Cr218      Cr  0.06816893  0.17131196  0.26643314     1.93200
Cr219      Cr  0.05022230  0.21149054  0.22871466     1.39100
O220        O  0.07846959  0.20559671  0.24677065    -1.21800
O221        O  0.39826804  0.23999245  0.01427889    -0.84100
O222        O  0.39788867  0.27854428  0.06372492    -0.81100
C223        C  0.40484914  0.30229572  0.07949189     0.99400
O224        O  0.41290799  0.32475413  0.06064677    -0.81200
O225        O  0.46931599  0.33290549  0.05464534    -0.83800
C226        C  0.49005318  0.32974332  0.04220593     1.03900
O227        O  0.48773638  0.31709997  0.01158537    -0.76600
O228        O  0.44604199  0.26044592  0.01087066    -0.76800
C229        C  0.42186047  0.23983799  0.02098565     1.03900
O230        O  0.39111826  0.26291651  0.44636473    -0.84100
O231        O  0.37371492  0.29075179  0.49544069    -0.81100
C232        C  0.38575475  0.31683300  0.48425875     0.99400
O233        O  0.41585391  0.34183199  0.98652871    -0.81200
O234        O  0.47271728  0.35154586  0.48917378    -0.83800
C235        C  0.47973805  0.34605360  0.45822742     1.03900
O236        O  0.46654829  0.32052765  0.44541279    -0.76600
O237        O  0.43154610  0.26069840  0.44174553    -0.76700
C238        C  0.40888724  0.25904338  0.42723230     1.03800
Cr239      Cr  0.39179287  0.27417110  0.00958006     1.93700
Cr240      Cr  0.44196571  0.33647557  0.02046605     1.93200
Cr241      Cr  0.45688982  0.28863035  0.48063283     1.39100
O242        O  0.42907255  0.30095731  0.00241882    -1.21800
O243        O  0.26600359  0.15485229  0.18039396    -0.84100
O244        O  0.22473877  0.11878637  0.22955358    -0.81100
C245        C  0.19990427  0.10361166  0.24379804     0.99400
O246        O  0.17717807  0.09138896  0.22390001    -0.81200
O247        O  0.17152051  0.13926910  0.20429295    -0.83800
C248        C  0.17577119  0.16176706  0.18709268     1.03900
O249        O  0.18925572  0.16828447  0.15675168    -0.76600
O250        O  0.24574764  0.18193525  0.17011618    -0.76800
C251        C  0.26615494  0.17879061  0.18355775     1.03900
O252        O  0.23885113  0.10831100  0.12491087    -0.84100
O253        O  0.20212948  0.07133610  0.17510857    -0.81100
C254        C  0.17835537  0.05858192  0.15675506     0.99400
O255        O  0.16348536  0.07094983  0.15037579    -0.81200
O256        O  0.15102529  0.11470138  0.13398073    -0.81400
C257        C  0.16086156  0.12253469  0.10202705     1.03900
O258        O  0.18756248  0.13211305  0.09572232    -0.76600
O259        O  0.24562057  0.15009260  0.10507083    -0.76700
C260        C  0.24515305  0.12627591  0.09928623     1.03800
Cr261      Cr  0.23122585  0.11434505  0.17658595     1.93700
Cr262      Cr  0.16868152  0.10545101  0.17714132     1.93200
Cr263      Cr  0.21642097  0.15584944  0.13408916     1.39100
O264        O  0.20561640  0.12540973  0.16282251    -1.21800
C265        C  0.16288958  0.17952190  0.20028348    -0.15200
C266        C  0.14315011  0.17027708  0.22739799    -0.30300
H267        H  0.16755399  0.19900061  0.18519062     0.13900
H268        H  0.13810406  0.15036243  0.24169554     0.14400
C269        C  0.03113537  0.37190410  0.06412006    -0.15200
C270        C  0.01682800  0.34278764  0.06473982    -0.30300
H271        H  0.01991794  0.38314625  0.05377495     0.13900
H272        H  0.53211500  0.33407996  0.06175016     0.14400
C273        C  0.18233068  0.01580472  0.13348028    -0.15200
C274        C  0.16652722  0.02876884  0.14269640    -0.30300
H275        H  0.20559799  0.02594410  0.13983682     0.13900
H276        H  0.14329731  0.01806095  0.13573649     0.14400
C277        C  0.48693841  0.15854775  0.30969991    -0.15200
C278        C  0.47616946  0.13110357  0.32129702    -0.30300
H279        H  0.97862623  0.17599523  0.31504228     0.13900
H280        H  0.48803774  0.11947425  0.31599419     0.14400
C281        C  0.30002604  0.10649268  0.38454396    -0.15200
C282        C  0.30044086  0.08308454  0.37091898    -0.30300
H283        H  0.31782726  0.12818462  0.37883115     0.13900
H284        H  0.28150662  0.06170909  0.37500298     0.14400
C285        C  0.13095698  0.48915419  0.98506384    -0.15200
C286        C  0.13593354  0.01969778  0.49616111    -0.30300
H287        H  0.13634171  0.48352808  0.95851622     0.13900
H288        H  0.13388264  0.02739156  0.52309544     0.14400
C289        C  0.24738715  0.13158015  0.03179150    -0.15200
C290        C  0.24977429  0.11807295  0.06182953    -0.30300
H291        H  0.24564841  0.15106928  0.03532708     0.13900
H292        H  0.25017116  0.09785939  0.05863567     0.14400
C293        C  0.21391121  0.11737370  0.30912519    -0.15200
C294        C  0.19644281  0.09822782  0.28346317    -0.30300
H295        H  0.23204749  0.13825754  0.30110298     0.13900
H296        H  0.17737719  0.07811080  0.29181237     0.14400
C297        C  0.42200933  0.21590624  0.04171673    -0.15200
C298        C  0.39767641  0.19129868  0.05093079    -0.30300
H299        H  0.44327819  0.21873968  0.04983268     0.13900
H300        H  0.37634083  0.18712869  0.04101194     0.14400
C301        C  0.01340869  0.12936829  0.17517436    -0.15200
C302        C  0.48152188  0.11372986  0.17103459    -0.30300
H303        H  0.02195105  0.13101056  0.14764095     0.13900
H304        H  0.47263530  0.10939537  0.19865360     0.14400
C305        C  0.39200862  0.12968589  0.23350287    -0.15200
C306        C  0.37609324  0.12066931  0.20212670    -0.30300
H307        H  0.41494712  0.14631808  0.23200346     0.13900
H308        H  0.35299231  0.10450224  0.20348806     0.14400
C309        C  0.38692559  0.09219684  0.48282329    -0.15200
C310        C  0.40612672  0.09540883  0.45659375    -0.30300
H311        H  0.36494409  0.08770554  0.47550252     0.13900
H312        H  0.42747875  0.09833806  0.46440928     0.14400
C313        C  0.12697485  0.13850546  0.08360022    -0.15200
C314        C  0.14270132  0.12585075  0.07389071    -0.30300
H315        H  0.12436607  0.14182422  0.11255227     0.13900
H316        H  0.14867571  0.12606600  0.04526295     0.14400
C317        C  0.10004720  0.23970378  0.13030263    -0.15200
C318        C  0.12577626  0.24567060  0.11519446    -0.30300
H319        H  0.08108150  0.23306092  0.11236694     0.13900
H320        H  0.14458523  0.25111938  0.13292400     0.14400
C321        C  0.09307450  0.20438792  0.38927566    -0.15200
C322        C  0.11302875  0.21832010  0.36290177    -0.30300
H323        H  0.07136185  0.18709769  0.38143852     0.13900
H324        H  0.13524274  0.23471015  0.37037491     0.14400
C325        C  0.02404651  0.16137586  0.03177185    -0.15200
C326        C  0.01351211  0.17648270  0.04995652    -0.30300
H327        H  0.01085299  0.13785649  0.03001444     0.13900
H328        H  0.51798512  0.19878191  0.03500182     0.14400
C329        C  0.16860009  0.14761503  0.44211962    -0.15200
C330        C  0.18058582  0.17068727  0.46483765    -0.30300
H331        H  0.14691433  0.14036142  0.43044097     0.13900
H332        H  0.20187790  0.17745640  0.47743442     0.14400
C333        C  0.21741248  0.29965246  0.44969981    -0.15200
C334        C  0.19809273  0.30050474  0.47287037    -0.30300
H335        H  0.21535062  0.27876620  0.44251883     0.13900
H336        H  0.19825796  0.32079142  0.47813807     0.14400
C337        C  0.33988854  0.47239783  0.39170851    -0.15200
C338        C  0.32563342  0.48348771  0.37262432    -0.30300
H339        H  0.36261900  0.48648656  0.39988745     0.13900
H340        H  0.30419294  0.96607601  0.35722493     0.14400
C341        C  0.36911970  0.33005851  0.46803377    -0.15200
C342        C  0.34009734  0.31713880  0.45997246    -0.30300
H343        H  0.38335644  0.36063112  0.96369617     0.13900
H344        H  0.32574039  0.29426045  0.46552149     0.14400
C345        C  0.21081467  0.39352571  0.12191358    -0.15200
C346        C  0.20699587  0.41686071  0.11980030    -0.30300
H347        H  0.19667357  0.37400125  0.10619887     0.13900
H348        H  0.22295289  0.43694237  0.13321948     0.14400
C349        C  0.36756572  0.48651783  0.24649701    -0.15200
C350        C  0.38019868  0.01113705  0.25023295    -0.30300
H351        H  0.37492844  0.48126448  0.27185738     0.13900
H352        H  0.37994316  0.01594398  0.22121597     0.14400
C353        C  0.26138618  0.37916092  0.30628613    -0.15200
C354        C  0.26009246  0.36748936  0.27307282    -0.30300
H355        H  0.26045208  0.39917273  0.30823326     0.13900
H356        H  0.25912297  0.34653776  0.27128278     0.14400
C357        C  0.30404051  0.40216752  0.02984058    -0.15200
C358        C  0.30977350  0.38714134  0.05494775    -0.30300
H359        H  0.29814121  0.41827542  0.03849925     0.13900
H360        H  0.31283901  0.36906410  0.04676316     0.14400
C361        C  0.34107246  0.01144086  0.13848700    -0.15200
C362        C  0.36002660  0.02186941  0.11062161    -0.30300
H363        H  0.31723456  0.51281819  0.11434882     0.13900
H364        H  0.36654890  0.00779663  0.09665811     0.14400
C365        C  0.28999435  0.20399763  0.20297790    -0.15200
C366        C  0.31204582  0.20360345  0.22162686    -0.30300
H367        H  0.28859740  0.22381595  0.20282918     0.13900
H368        H  0.31414263  0.18418904  0.22167797     0.14400
C369        C  0.40360991  0.28464143  0.14227332    -0.15200
C370        C  0.40447814  0.30489017  0.11955047    -0.30300
H371        H  0.40104109  0.26436688  0.13139009     0.13900
H372        H  0.40675718  0.32498839  0.13069050     0.14400
C373        C  0.40471738  0.25455969  0.38714766    -0.15200
C374        C  0.38041968  0.25116697  0.37035265    -0.30300
H375        H  0.42326604  0.25739821  0.37091792     0.13900
H376        H  0.36174352  0.24779745  0.38672444     0.14400
C377        C  0.38460442  0.35723083  0.34379870    -0.15200
C378        C  0.37663615  0.37727203  0.33605683    -0.30300
H379        H  0.38122404  0.34877514  0.37167568     0.13900
H380        H  0.37827326  0.38529230  0.30822716     0.14400
C381        C  0.32912625  0.33216277  0.21444300    -0.15200
C382        C  0.34255590  0.35660141  0.19469716    -0.30300
H383        H  0.30675276  0.32405293  0.22360600     0.13900
H384        H  0.36541073  0.36532400  0.18722066     0.14400
C385        C  0.08834636  0.29291169  0.28264960    -0.15200
C386        C  0.10789107  0.30998264  0.30840046    -0.30300
H387        H  0.06969324  0.29590610  0.27634822     0.13900
H388        H  0.12751049  0.30857487  0.31412455     0.14400
C389        C  0.00796715  0.37128022  0.40156171    -0.15200
C390        C  0.50750219  0.36768978  0.44169302    -0.30300
H391        H  0.98762012  0.36240129  0.38579182     0.13900
H392        H  0.52682595  0.37720352  0.45943322     0.14400
C393        C  0.13586165  0.47793348  0.35076032    -0.15200
C394        C  0.16052333  0.48824415  0.37112557    -0.30300
H395        H  0.12506721  0.49084576  0.34765110     0.13900
H396        H  0.18435234  0.98704721  0.36001967     0.14400
C397        C  0.50036774  0.32644026  0.28571648    -0.15200
C398        C  0.48535217  0.33951585  0.27430592    -0.30300
H399        H  0.98153986  0.29755236  0.29233164     0.13900
H400        H  0.49597369  0.36308891  0.27551155     0.14400
C401        C  0.13473936  0.39682295  0.44540462    -0.15200
C402        C  0.12431142  0.38284826  0.47719179    -0.30300
H403        H  0.15258499  0.41917035  0.44638778     0.13900
H404        H  0.10696078  0.36032391  0.47723411     0.14400
C405        C  0.11620146  0.39993725  0.21829285    -0.15200
C406        C  0.10447935  0.41139930  0.19572311    -0.30300
H407        H  0.12964149  0.39119480  0.20777705     0.13900
H408        H  0.09081152  0.41984212  0.20637205     0.14400
O409        O  0.12429151  0.35706657  0.83516793    -0.84100
O410        O  0.12109257  0.38987069  0.78000230    -0.81100
C411        C  0.11221651  0.40382191  0.76113143     0.99400
O412        O  0.10026614  0.41675994  0.77644705    -0.81200
O413        O  0.04660500  0.36824536  0.78787739    -0.83800
C414        C  0.02735357  0.34510364  0.80245921     1.03900
O415        O  0.03111147  0.33794953  0.83446171    -0.76600
O416        O  0.07686246  0.32850211  0.83322747    -0.76800
C417        C  0.10218168  0.33343487  0.82556812     1.03900
O418        O  0.13535503  0.40302675  0.88599808    -0.84100
O419        O  0.13830539  0.43862055  0.83095024    -0.81100
C420        C  0.12492927  0.45072010  0.84504286     0.99400
O421        O  0.09740247  0.43696086  0.84832267    -0.81200
O422        O  0.04011926  0.39055074  0.85506458    -0.83800
C423        C  0.03699376  0.38072617  0.88727282     1.03900
O424        O  0.05451738  0.37295067  0.89988897    -0.76600
O425        O  0.09985189  0.36029011  0.90314121    -0.76700
C426        C  0.12325412  0.38401527  0.91022135     1.03800
Cr427      Cr  0.12695051  0.39620337  0.83340908     1.93700
Cr428      Cr  0.07256746  0.40207311  0.81867534     1.93200
Cr429      Cr  0.06746558  0.35214682  0.86605328     1.39100
O430        O  0.08895357  0.38349692  0.83980400    -1.21800
O431        O  0.36358668  0.24080776  0.75098207    -0.84100
O432        O  0.39392879  0.27976568  0.69525126    -0.81100
C433        C  0.40621157  0.30360224  0.67821355     0.99400
O434        O  0.41899546  0.32729540  0.69582175    -0.81200
O435        O  0.37012652  0.33011458  0.71541496    -0.83800
C436        C  0.34705415  0.32472344  0.73221549     1.03900
O437        O  0.34153635  0.31255796  0.76337258    -0.76600
O438        O  0.33305394  0.25762054  0.75442461    -0.76800
C439        C  0.33840649  0.23775346  0.74532104     1.03900
O440        O  0.41177325  0.27526720  0.80081151    -0.84100
O441        O  0.44440879  0.30949244  0.74458786    -0.81100
C442        C  0.45693803  0.33413305  0.76033533     0.99400
O443        O  0.44292323  0.34718289  0.76759963    -0.81200
O444        O  0.39599032  0.35593710  0.78403980    -0.83800
C445        C  0.38879349  0.34726811  0.81660674     1.03900
O446        O  0.38023380  0.32121685  0.82473845    -0.76600
O447        O  0.36830309  0.26481928  0.82087108    -0.76700
C448        C  0.39350702  0.26755875  0.82655135     1.03800
Cr449      Cr  0.40233445  0.27796829  0.74859564     1.93700
Cr450      Cr  0.40586791  0.33740929  0.74218792     1.93200
Cr451      Cr  0.35795212  0.28969533  0.78873669     1.39100
O452        O  0.38868667  0.30169843  0.75999423    -1.21800
O453        O  0.24334413  0.38561923  0.63676426    -0.84100
O454        O  0.28749300  0.37474746  0.61409295    -0.81100
C455        C  0.30328859  0.39540537  0.59292599     0.99400
O456        O  0.31861827  0.42084487  0.60529072    -0.81200
O457        O  0.33574448  0.46774682  0.65034819    -0.83800
C458        C  0.31737905  0.47647766  0.64665926     1.03900
O459        O  0.29146277  0.46144697  0.65850809    -0.76600
O460        O  0.24148180  0.41109313  0.68311576    -0.76800
C461        C  0.23137861  0.39819031  0.65287089     1.03900
O462        O  0.24913354  0.36748871  0.71092086    -0.84100
O463        O  0.29571801  0.36236947  0.68852327    -0.81100
C464        C  0.32179812  0.37077309  0.67922541     0.99400
O465        O  0.33585970  0.39341068  0.66032381    -0.81200
O466        O  0.34913127  0.43991698  0.70780049    -0.83800
C467        C  0.34525627  0.45819947  0.72569369     1.03900
O468        O  0.32226361  0.45985726  0.72123581    -0.76600
O469        O  0.27626251  0.40761427  0.74210254    -0.76700
C470        C  0.25988978  0.38040444  0.74114896     1.03800
Cr471      Cr  0.27060692  0.37540658  0.66318970     1.93700
Cr472      Cr  0.33187975  0.42898310  0.65721691     1.93200
Cr473      Cr  0.28345720  0.43315824  0.69923853     1.39100
O474        O  0.29538103  0.41254053  0.67314821    -1.21800
O475        O  0.24734510  0.34491712  0.94656488    -0.84100
O476        O  0.28762396  0.40039182  0.96884548    -0.81100
C477        C  0.30442106  0.39662015  0.99047449     0.99400
O478        O  0.32221823  0.38919158  0.97851627    -0.81200
O479        O  0.34483402  0.36378850  0.93505561    -0.83800
C480        C  0.32857712  0.33723173  0.94199375     1.03900
O481        O  0.30239429  0.32394588  0.93007120    -0.76600
O482        O  0.24959739  0.31741344  0.90308337    -0.76800
C483        C  0.23838743  0.32020658  0.93224229     1.03900
O484        O  0.25048622  0.36546829  0.87199541    -0.84100
O485        O  0.29324831  0.41915387  0.89370912    -0.81100
C486        C  0.31828849  0.43850635  0.90425436     0.99400
O487        O  0.33427527  0.43218107  0.92381129    -0.81200
O488        O  0.35240136  0.40214644  0.87683560    -0.83800
C489        C  0.35132160  0.38071545  0.86002220     1.03900
O490        O  0.33059326  0.35528009  0.86550703    -0.76600
O491        O  0.28019621  0.35454165  0.84248992    -0.76700
C492        C  0.26172724  0.36333620  0.84233081     1.03800
Cr493      Cr  0.27164763  0.38164743  0.91966829     1.93700
Cr494      Cr  0.33556434  0.39525623  0.92723920     1.93200
Cr495      Cr  0.29103179  0.34008572  0.88699398     1.39100
O496        O  0.29939174  0.37240478  0.91116539    -1.21800
O497        O  0.14846547  0.26436823  0.99791276    -0.84100
O498        O  0.11036319  0.22616503  0.94507223    -0.81100
C499        C  0.09530357  0.20235099  0.92814489     0.99400
O500        O  0.08395252  0.17860930  0.94533188    -0.81200
O501        O  0.13256222  0.17139705  0.95485956    -0.83800
C502        C  0.15700533  0.17615484  0.96776979     1.03900
O503        O  0.16651552  0.18944904  0.99815919    -0.76600
O504        O  0.17709249  0.24541113  0.99220844    -0.76800
C505        C  0.17244009  0.26640565  0.98799503     1.03900
O506        O  0.10753825  0.23912275  0.55402709    -0.84100
O507        O  0.06833388  0.20359114  0.50187457    -0.81100
C508        C  0.05741844  0.17896435  0.51717958     0.99400
O509        O  0.07190904  0.16595762  0.52005933    -0.81200
O510        O  0.11837204  0.15773558  0.53226910    -0.83800
C511        C  0.12619369  0.16729588  0.56455770     1.03900
O512        O  0.13712278  0.19395666  0.57175175    -0.76600
O513        O  0.15316031  0.25156789  0.56537091    -0.76700
C514        C  0.12895442  0.24832712  0.57626276     1.03800
Cr515      Cr  0.10873550  0.22859492  0.99986130     1.93700
Cr516      Cr  0.10079818  0.16756920  0.98770956     1.93200
Cr517      Cr  0.15816111  0.22332729  0.53360530     1.39100
O518        O  0.12541462  0.21099664  0.50789432    -1.21800
O519        O  0.38744545  0.14145157  0.57111270    -0.84100
O520        O  0.37697518  0.08956014  0.54695445    -0.81100
C521        C  0.39565321  0.09444998  0.52199393     0.99400
O522        O  0.42179602  0.10123770  0.52999413    -0.81200
O523        O  0.47564717  0.13030436  0.56448120    -0.83800
C524        C  0.48367853  0.15623471  0.55571438     1.03900
O525        O  0.46923805  0.16785261  0.56691014    -0.76600
O526        O  0.42657570  0.17543808  0.59900709    -0.76800
C527        C  0.40549071  0.16766691  0.57655611     1.03900
O528        O  0.38399303  0.12381286  0.64797364    -0.84100
O529        O  0.37330823  0.07075811  0.62291208    -0.81100
C530        C  0.37877311  0.05223108  0.60907839     0.99400
O531        O  0.39986707  0.05992262  0.58728168    -0.81200
O532        O  0.45140350  0.09489255  0.62796526    -0.83800
C533        C  0.47174204  0.11749680  0.64316007     1.03900
O534        O  0.47632335  0.14250023  0.63402936    -0.76600
O535        O  0.43085214  0.14650534  0.66374292    -0.76700
C536        C  0.40420912  0.13506926  0.67221541     1.03800
Cr537      Cr  0.38376301  0.10759955  0.59755635     1.93700
Cr538      Cr  0.43590764  0.09815408  0.57900621     1.93200
Cr539      Cr  0.44840384  0.15521987  0.61455488     1.39100
O540        O  0.42240977  0.12026255  0.59746269    -1.21800
O541        O  0.26914380  0.11829596  0.92031319    -0.84100
O542        O  0.23424070  0.11629989  0.86411979    -0.81100
C543        C  0.21218651  0.10589125  0.84327067     0.99400
O544        O  0.18645302  0.09277335  0.85651939    -0.81200
O545        O  0.17942494  0.03969100  0.87473594    -0.83800
C546        C  0.18212235  0.02041385  0.89154139     1.03900
O547        O  0.19417448  0.02566762  0.92312191    -0.76600
O548        O  0.25032440  0.07117307  0.91772206    -0.76800
C549        C  0.27089676  0.09622564  0.91062803     1.03900
O550        O  0.23324433  0.13016233  0.97007995    -0.84100
O551        O  0.20172577  0.13413529  0.91261875    -0.81100
C552        C  0.17552649  0.12128803  0.92410683     0.99400
O553        O  0.16167420  0.09408149  0.92730027    -0.81200
O554        O  0.15178451  0.03817918  0.94263995    -0.83800
C555        C  0.15987991  0.03745275  0.97548481     1.03900
O556        O  0.18592206  0.05411136  0.98561168    -0.76600
O557        O  0.24361911  0.09641833  0.98651007    -0.76700
C558        C  0.24142808  0.11870484  0.99428327     1.03800
Cr559      Cr  0.23263956  0.12192598  0.91725383     1.93700
Cr560      Cr  0.17249564  0.06775173  0.90205484     1.93200
Cr561      Cr  0.21805542  0.06354931  0.95118980     1.39100
O562        O  0.20757328  0.08437895  0.92358590    -1.21800
O563        O  0.34327792  0.10125277  0.84551761    -0.84100
O564        O  0.38268021  0.09962201  0.89425599    -0.81100
C565        C  0.39874225  0.09078305  0.90889438     0.99400
O566        O  0.40980883  0.07884136  0.88965801    -0.81200
O567        O  0.36158680  0.02533599  0.87180369    -0.83800
C568        C  0.33860378  0.00669507  0.85530368     1.03900
O569        O  0.33121487  0.01232167  0.82461974    -0.76600
O570        O  0.31670234  0.05385946  0.83975277    -0.76800
C571        C  0.31993408  0.07759376  0.85166547     1.03900
O572        O  0.38775792  0.11851015  0.78766024    -0.84100
O573        O  0.42772705  0.12196954  0.83841018    -0.81100
C574        C  0.44084520  0.11082236  0.82149355     0.99400
O575        O  0.42859938  0.08385445  0.81566707    -0.81200
O576        O  0.38461414  0.02798556  0.80065099    -0.83800
C577        C  0.37559369  0.02934914  0.76883071     1.03900
O578        O  0.36440675  0.04526742  0.76281736    -0.76600
O579        O  0.34386572  0.08377270  0.77338640    -0.76700
C580        C  0.36725150  0.10610581  0.76437849     1.03800
Cr581      Cr  0.38440118  0.10773490  0.84057848     1.93700
Cr582      Cr  0.39463373  0.05534993  0.84345173     1.93200
Cr583      Cr  0.34146314  0.05049797  0.80206362     1.39100
O584        O  0.37341925  0.07119108  0.82898692    -1.21800
O585        O  0.15800828  0.40604738  0.61333459    -0.84100
O586        O  0.10886736  0.40203974  0.64337765    -0.81100
C587        C  0.11366131  0.42463257  0.66126464     0.99400
O588        O  0.11890378  0.44778513  0.64551558    -0.81200
O589        O  0.14443654  0.49023356  0.59479173    -0.83800
C590        C  0.17059579  0.49830996  0.60393449     1.03900
O591        O  0.18219469  0.48340524  0.59386158    -0.76600
O592        O  0.18532960  0.43447328  0.56961319    -0.76800
C593        C  0.18199951  0.41834619  0.59667274     1.03900
O594        O  0.12788641  0.38583162  0.54256407    -0.84100
O595        O  0.07930230  0.38214009  0.57302113    -0.81100
C596        C  0.06190688  0.39045313  0.58374941     0.99400
O597        O  0.07141050  0.41513739  0.59788465    -0.81200
O598        O  0.10087004  0.45510035  0.54221704    -0.83800
C599        C  0.12165741  0.47271326  0.52238442     1.03900
O600        O  0.14767354  0.47795110  0.52844533    -0.76600
O601        O  0.14550456  0.42675276  0.51150697    -0.76700
C602        C  0.13346566  0.39935013  0.51233540     1.03800
Cr603      Cr  0.11953486  0.39703108  0.59209700     1.93700
Cr604      Cr  0.11048642  0.45046065  0.59375264     1.93200
Cr605      Cr  0.16283322  0.45403617  0.55314530     1.39100
O606        O  0.13089634  0.43349973  0.57972146    -1.21800
O607        O  0.10460280  0.26304867  0.77083193    -0.84100
O608        O  0.12053485  0.22603789  0.79881694    -0.81100
C609        C  0.10177946  0.21116529  0.82321743     0.99400
O610        O  0.07685655  0.19050865  0.81418428    -0.81200
O611        O  0.02495316  0.16109491  0.77651078    -0.83800
C612        C  0.01340313  0.17651005  0.78365339     1.03900
O613        O  0.02527596  0.20226931  0.77252212    -0.76600
O614        O  0.06467653  0.25366462  0.74031269    -0.76800
C615        C  0.08490942  0.26903081  0.76281541     1.03900
O616        O  0.11260809  0.24922554  0.69489722    -0.84100
O617        O  0.12816933  0.21118333  0.72302808    -0.81100
C618        C  0.12506090  0.18827032  0.73717921     0.99400
O619        O  0.10522376  0.17482303  0.76025507    -0.81200
O620        O  0.05451308  0.15316377  0.71638081    -0.83800
C621        C  0.03282051  0.15251399  0.70002942     1.03900
O622        O  0.02492590  0.17110269  0.70718420    -0.76600
O623        O  0.06641611  0.22155891  0.67787610    -0.76700
C624        C  0.09275324  0.23857073  0.67005391     1.03800
Cr625      Cr  0.11349129  0.23517384  0.74662193     1.93700
Cr626      Cr  0.06640640  0.17272073  0.76518423     1.93200
Cr627      Cr  0.04781650  0.21197183  0.72613638     1.39100
O628        O  0.07615245  0.20692011  0.74563404    -1.21800
O629        O  0.40256273  0.23303219  0.50662643    -0.84100
O630        O  0.39029583  0.26398556  0.55512359    -0.81100
C631        C  0.39661393  0.28583999  0.57484287     0.99400
O632        O  0.40739355  0.31073112  0.56047039    -0.81200
O633        O  0.46520521  0.32425938  0.55790096    -0.83800
C634        C  0.48791673  0.32443627  0.54643203     1.03900
O635        O  0.48865114  0.31482726  0.51496664    -0.76600
O636        O  0.45028079  0.25789756  0.51507033    -0.76800
C637        C  0.42610839  0.23547284  0.52012649     1.03900
O638        O  0.38319325  0.26791679  0.95646277    -0.84100
O639        O  0.37653690  0.30242062  0.00533249    -0.81100
C640        C  0.38832402  0.32640013  0.98831053     0.99400
O641        O  0.41308333  0.33322398  0.48730004    -0.81200
O642        O  0.47520393  0.35774573  0.98636722    -0.83800
C643        C  0.47998078  0.35095544  0.95519416     1.03900
O644        O  0.46441778  0.32547023  0.94314396    -0.76600
O645        O  0.42332585  0.26774812  0.93936168    -0.76700
C646        C  0.39822356  0.26474367  0.93193483     1.03800
Cr647      Cr  0.39202270  0.26473603  0.50078677     1.93700
Cr648      Cr  0.43848598  0.32729736  0.52198744     1.93200
Cr649      Cr  0.45325631  0.29289421  0.97797882     1.39100
O650        O  0.42906984  0.29348569  0.50121386    -1.21800
O651        O  0.26251420  0.16132433  0.69691300    -0.84100
O652        O  0.21882074  0.10873440  0.72090359    -0.81100
C653        C  0.19950474  0.11052432  0.74023599     0.99400
O654        O  0.18207575  0.11768108  0.72633649    -0.81200
O655        O  0.16408659  0.14706617  0.68296355    -0.83800
C656        C  0.18132623  0.17340263  0.69108422     1.03900
O657        O  0.20794886  0.18540634  0.68200712    -0.76600
O658        O  0.26045805  0.19116058  0.65717684    -0.76800
C659        C  0.27203512  0.18668141  0.68501907     1.03900
O660        O  0.25493230  0.13802356  0.62020849    -0.84100
O661        O  0.21171838  0.08709371  0.64472324    -0.81100
C662        C  0.18611503  0.06860327  0.65343609     0.99400
O663        O  0.17033404  0.07597711  0.67121113    -0.81200
O664        O  0.15759694  0.10896547  0.62312851    -0.81400
C665        C  0.15942689  0.13107046  0.60792759     1.03900
O666        O  0.18026301  0.15614691  0.61559512    -0.76600
O667        O  0.23001357  0.15683587  0.59415365    -0.76700
C668        C  0.24630572  0.14570265  0.59156978     1.03800
Cr669      Cr  0.23514025  0.12487478  0.67012120     1.93700
Cr670      Cr  0.17173256  0.11417751  0.67456785     1.93200
Cr671      Cr  0.21913368  0.16970619  0.63910885     1.39100
O672        O  0.20892151  0.13626448  0.66146816    -1.21800
C673        C  0.16883396  0.19003037  0.70842021    -0.15200
C674        C  0.14322300  0.17559021  0.72617949    -0.30300
H675        H  0.17921013  0.21333788  0.70440539     0.13900
H676        H  0.13420911  0.15257701  0.73170730     0.14400
C677        C  0.03010513  0.37197675  0.57866844    -0.15200
C678        C  0.01851162  0.34477514  0.56594068    -0.30300
H679        H  0.01642119  0.38199265  0.58152891     0.13900
H680        H  0.52937411  0.32992276  0.56751205     0.14400
C681        C  0.18611729  0.02798042  0.61914235    -0.15200
C682        C  0.17372969  0.03786361  0.64333367    -0.30300
H683        H  0.20678792  0.04284349  0.60628875     0.13900
H684        H  0.15233329  0.02302053  0.65457812     0.14400
C685        C  0.48504275  0.15792673  0.80627130    -0.15200
C686        C  0.47097685  0.12872605  0.80864930    -0.30300
H687        H  0.97196739  0.17428042  0.80152811     0.13900
H688        H  0.48137353  0.11674300  0.79838733     0.14400
C689        C  0.29676752  0.09958992  0.89040075    -0.15200
C690        C  0.29553403  0.07675333  0.87245715    -0.30300
H691        H  0.31625854  0.12084424  0.88900477     0.13900
H692        H  0.27562385  0.05577864  0.87369455     0.14400
C693        C  0.11726122  0.48998740  0.49412636    -0.15200
C694        C  0.14074158  0.01493030  0.00169547    -0.30300
H695        H  0.11551193  0.48225886  0.46600353     0.13900
H696        H  0.14405759  0.02126076  0.03057599     0.14400
C697        C  0.24871779  0.11565570  0.54050329    -0.15200
C698        C  0.25432769  0.14178482  0.55360132    -0.30300
H699        H  0.24281360  0.09806489  0.55987799     0.13900
H700        H  0.25763434  0.15852909  0.53393914     0.14400
C701        C  0.21721569  0.11014273  0.80324736    -0.15200
C702        C  0.19517948  0.10303675  0.77947918    -0.30300
H703        H  0.23961655  0.12054484  0.79333070     0.13900
H704        H  0.17303054  0.09428482  0.78985943     0.14400
C705        C  0.42652823  0.21256779  0.54231494    -0.15200
C706        C  0.40247277  0.18945661  0.55491891    -0.30300
H707        H  0.44797019  0.21549606  0.54977805     0.13900
H708        H  0.38079201  0.18535110  0.54664627     0.14400
C709        C  0.01553960  0.13022336  0.67239570    -0.15200
C710        C  0.49011209  0.11584101  0.67294891    -0.30300
H711        H  0.02477407  0.13421162  0.64497148     0.13900
H712        H  0.47965309  0.10928683  0.69957854     0.14400
C713        C  0.37086729  0.11568714  0.72556843    -0.15200
C714        C  0.39744583  0.13383126  0.71185947    -0.30300
H715        H  0.35242159  0.10383986  0.70686772     0.13900
H716        H  0.41603282  0.14466847  0.73064529     0.14400
C717        C  0.38758903  0.09431544  0.97405779    -0.15200
C718        C  0.40616070  0.09502100  0.94838608    -0.30300
H719        H  0.36609330  0.09083534  0.96592760     0.13900
H720        H  0.42683022  0.09657200  0.95678331     0.14400
C721        C  0.12675899  0.14833836  0.59305091    -0.15200
C722        C  0.13593156  0.12941324  0.58467052    -0.30300
H723        H  0.12992840  0.15681103  0.62103978     0.13900
H724        H  0.13419775  0.12126386  0.55678879     0.14400
C725        C  0.09923394  0.24440864  0.63039263    -0.15200
C726        C  0.12574827  0.25333596  0.61578818    -0.30300
H727        H  0.08035012  0.23649791  0.61200523     0.13900
H728        H  0.14464725  0.26013832  0.63386166     0.14400
C729        C  0.08911129  0.20096590  0.88842984    -0.15200
C730        C  0.10897291  0.21728875  0.86298145    -0.30300
H731        H  0.06803253  0.18311795  0.87956460     0.13900
H732        H  0.13065785  0.23428907  0.87138711     0.14400
C733        C  0.02743419  0.16400324  0.53183056    -0.15200
C734        C  0.01165546  0.17684101  0.54093688    -0.30300
H735        H  0.01901401  0.14127180  0.53854961     0.13900
H736        H  0.51890199  0.19633193  0.52999462     0.14400
C737        C  0.16020527  0.13757050  0.93375248    -0.15200
C738        C  0.17390895  0.16414644  0.94935308    -0.30300
H739        H  0.13637422  0.12567861  0.93281256     0.13900
H740        H  0.19746668  0.17488334  0.95399219     0.14400
C741        C  0.21505162  0.29377248  0.94909202    -0.15200
C742        C  0.19526109  0.29377348  0.97214552    -0.30300
H743        H  0.21362466  0.27327600  0.94124132     0.13900
H744        H  0.19506309  0.31379490  0.97811769     0.14400
C745        C  0.32998734  0.46908196  0.89453097    -0.15200
C746        C  0.31851781  0.47841007  0.86825058    -0.30300
H747        H  0.35072005  0.48430254  0.90757441     0.13900
H748        H  0.30066169  0.96244529  0.85570844     0.14400
C749        C  0.37078084  0.33790676  0.97133579    -0.15200
C750        C  0.34197223  0.32246909  0.96249094    -0.30300
H751        H  0.38282376  0.35286977  0.46138500     0.13900
H752        H  0.32914298  0.29952652  0.96885607     0.14400
C753        C  0.20504108  0.39771030  0.63759949    -0.15200
C754        C  0.20675038  0.41410915  0.60854288    -0.30300
H755        H  0.18513842  0.38736768  0.65372504     0.13900
H756        H  0.22735898  0.42574558  0.59394952     0.14400
C757        C  0.36801287  0.48047299  0.74951291    -0.15200
C758        C  0.37359398  0.00914509  0.73984917    -0.30300
H759        H  0.37062903  0.47419068  0.77708373     0.13900
H760        H  0.36787786  0.01330623  0.71254925     0.14400
C761        C  0.25534826  0.37422344  0.80816047    -0.15200
C762        C  0.25539182  0.36331741  0.77490600    -0.30300
H763        H  0.25355056  0.39377110  0.81026215     0.13900
H764        H  0.25534055  0.34282437  0.77260445     0.14400
C765        C  0.31037524  0.40890359  0.52764267    -0.15200
C766        C  0.30456515  0.38907679  0.55378125    -0.30300
H767        H  0.31281134  0.42994621  0.53468622     0.13900
H768        H  0.29935051  0.36718543  0.54603047     0.14400
C769        C  0.33389847  0.00741806  0.63113288    -0.15200
C770        C  0.36166040  0.02122240  0.61836078    -0.30300
H771        H  0.31636026  0.51737923  0.63487720     0.13900
H772        H  0.37301618  0.00896958  0.61403901     0.14400
C773        C  0.29622625  0.21214862  0.70377136    -0.15200
C774        C  0.31515709  0.21085197  0.72779693    -0.30300
H775        H  0.29876202  0.23325905  0.69699724     0.13900
H776        H  0.31459563  0.19037864  0.73289791     0.14400
C777        C  0.40705235  0.30515911  0.63772571    -0.15200
C778        C  0.39226287  0.28234232  0.61505791    -0.30300
H779        H  0.42079628  0.32652313  0.62604118     0.13900
H780        H  0.37894410  0.26072000  0.62620481     0.14400
C781        C  0.38613990  0.25907013  0.89379841    -0.15200
C782        C  0.40267492  0.26329302  0.86383422    -0.30300
H783        H  0.36406740  0.25568128  0.89019186     0.13900
H784        H  0.42508351  0.26762639  0.86731736     0.14400
C785        C  0.38634361  0.36597041  0.84468941    -0.15200
C786        C  0.37510868  0.38335186  0.83636023    -0.30300
H787        H  0.38417220  0.35818726  0.87280459     0.13900
H788        H  0.37548205  0.39043700  0.80827041     0.14400
C789        C  0.32763206  0.33504439  0.71708046    -0.15200
C790        C  0.33694774  0.35477822  0.69006122    -0.30300
H791        H  0.30714340  0.32904981  0.73092556     0.13900
H792        H  0.35815382  0.36168930  0.67761383     0.14400
C793        C  0.08455915  0.29363889  0.78107978    -0.15200
C794        C  0.10560384  0.31138982  0.80498930    -0.30300
H795        H  0.06560662  0.29640279  0.77607545     0.13900
H796        H  0.12542598  0.30999002  0.80894850     0.14400
C797        C  0.00948844  0.37295149  0.90656808    -0.15200
C798        C  0.50743472  0.37110369  0.93720087    -0.30300
H799        H  0.98973520  0.36553540  0.88991420     0.13900
H800        H  0.52715819  0.38106955  0.95424692     0.14400
C801        C  0.14072595  0.48118865  0.85744970    -0.15200
C802        C  0.17013239  0.49745700  0.86138373    -0.30300
H803        H  0.12685876  0.48996684  0.86618723     0.13900
H804        H  0.17848905  0.97741200  0.88069380     0.14400
C805        C  0.50173131  0.33343821  0.77993658    -0.15200
C806        C  0.48827888  0.34836113  0.76977956    -0.30300
H807        H  0.98582776  0.30497481  0.78960470     0.13900
H808        H  0.49972350  0.37185761  0.77304430     0.14400
C809        C  0.13678642  0.39102140  0.94725434    -0.15200
C810        C  0.12293248  0.37602980  0.97717175    -0.30300
H811        H  0.15683992  0.41172652  0.95059473     0.13900
H812        H  0.10219211  0.35596384  0.97404876     0.14400
C813        C  0.11588594  0.40507425  0.72124703    -0.15200
C814        C  0.11198403  0.42405442  0.70127964    -0.30300
H815        H  0.12157058  0.39007834  0.70808458     0.13900
H816        H  0.10796904  0.44011991  0.71470637     0.14400
O817        O  0.12431758  0.85475273  0.33667840    -0.84100
O818        O  0.12109019  0.88756509  0.28099566    -0.81100
C819        C  0.11129359  0.90067983  0.26191400     0.99400
O820        O  0.10041803  0.91447315  0.27735287    -0.81200
O821        O  0.04594697  0.86581841  0.28921986    -0.83800
C822        C  0.02663096  0.84318723  0.30492065     1.03900
O823        O  0.03114586  0.83631488  0.33674499    -0.76600
O824        O  0.07682338  0.82580521  0.33763190    -0.76800
C825        C  0.10205747  0.83033681  0.32980269     1.03900
O826        O  0.13587652  0.90143132  0.38752987    -0.84100
O827        O  0.13876707  0.93693175  0.33249539    -0.81100
C828        C  0.12521605  0.94898349  0.34643089     0.99400
O829        O  0.09761683  0.93532270  0.34844452    -0.81200
O830        O  0.04059351  0.88971425  0.35467275    -0.83800
C831        C  0.03771288  0.88096191  0.38719667     1.03900
O832        O  0.05495984  0.87313020  0.40059443    -0.76600
O833        O  0.09954410  0.85983506  0.40631880    -0.76700
C834        C  0.12308231  0.88352512  0.41279983     1.03800
Cr835      Cr  0.12715349  0.89419594  0.33471025     1.93700
Cr836      Cr  0.07276813  0.90019842  0.31913916     1.93200
Cr837      Cr  0.06754779  0.85099506  0.36842838     1.39100
O838        O  0.08909698  0.88165013  0.34098192    -1.21800
O839        O  0.35843401  0.73576986  0.25841678    -0.84100
O840        O  0.39524816  0.76842216  0.20480315    -0.81100
C841        C  0.40443417  0.78938175  0.18289668     0.99400
O842        O  0.41548600  0.81537183  0.19449480    -0.81200
O843        O  0.37051615  0.82499422  0.20956566    -0.83800
C844        C  0.34806983  0.82286513  0.22462525     1.03900
O845        O  0.34084645  0.81181017  0.25614054    -0.76600
O846        O  0.33065702  0.75550183  0.24973628    -0.76800
C847        C  0.33520440  0.73437109  0.24552270     1.03900
O848        O  0.40326400  0.77207246  0.31308953    -0.84100
O849        O  0.44209860  0.80063220  0.25764772    -0.81100
C850        C  0.45538841  0.82741416  0.26578194     0.99400
O851        O  0.44219316  0.84182787  0.26484188    -0.81200
O852        O  0.39703745  0.85294726  0.27882950    -0.83800
C853        C  0.38805097  0.84532616  0.31146155     1.03900
O854        O  0.37502817  0.81895195  0.32056312    -0.76600
O855        O  0.35767186  0.76088213  0.32075472    -0.76700
C856        C  0.38152572  0.76422858  0.33383331     1.03800
Cr857      Cr  0.39891895  0.77124933  0.25875994     1.93700
Cr858      Cr  0.40500799  0.83102152  0.23872631     1.93200
Cr859      Cr  0.35344440  0.78732366  0.28485905     1.39100
O860        O  0.38603800  0.79675889  0.26061676    -1.21800
O861        O  0.24354006  0.88889480  0.15944429    -0.84100
O862        O  0.28445916  0.89376921  0.10950531    -0.81100
C863        C  0.30882500  0.90152442  0.09478382     0.99400
O864        O  0.33175206  0.91153862  0.11408504    -0.81200
O865        O  0.33525094  0.96400181  0.13454036    -0.83800
C866        C  0.33081169  0.98193188  0.15261322     1.03900
O867        O  0.31950669  0.97570357  0.18436378    -0.76600
O868        O  0.26353245  0.93475159  0.17567681    -0.76800
C869        C  0.24362324  0.91294303  0.15942130     1.03900
O870        O  0.27105900  0.86695095  0.21207583    -0.84100
O871        O  0.30829803  0.86810728  0.16202987    -0.81100
C872        C  0.33307541  0.87879255  0.17847463     0.99400
O873        O  0.34783611  0.90559160  0.18583380    -0.81200
O874        O  0.35968858  0.96190997  0.20241316    -0.83800
C875        C  0.35133593  0.96022129  0.23508303     1.03900
O876        O  0.32556418  0.94191719  0.24344387    -0.76600
O877        O  0.26734465  0.90216256  0.23862824    -0.76700
C878        C  0.26650026  0.87784805  0.24015442     1.03800
Cr879      Cr  0.27848229  0.88208006  0.16182179     1.93700
Cr880      Cr  0.34075397  0.93430908  0.16051250     1.93200
Cr881      Cr  0.29444301  0.93690135  0.20834530     1.39100
O882        O  0.30428129  0.91764421  0.17694270    -1.21800
O883        O  0.25218266  0.84791507  0.44743202    -0.84100
O884        O  0.29364934  0.90355391  0.46786882    -0.81100
C885        C  0.30959700  0.89935725  0.49037333     0.99400
O886        O  0.32686312  0.89077619  0.47965410    -0.81200
O887        O  0.34972848  0.86399000  0.43769390    -0.83800
C888        C  0.33322886  0.83730375  0.44391383     1.03900
O889        O  0.30703367  0.82456808  0.43201511    -0.76600
O890        O  0.25433837  0.81884152  0.40605300    -0.76800
C891        C  0.24300183  0.82274029  0.43444073     1.03900
O892        O  0.25571797  0.86710793  0.37226361    -0.84100
O893        O  0.30008116  0.92088137  0.39260352    -0.81100
C894        C  0.32503117  0.94001238  0.40388649     0.99400
O895        O  0.34052459  0.93327231  0.42381667    -0.81200
O896        O  0.35785464  0.90200700  0.37817551    -0.83800
C897        C  0.35558860  0.88042249  0.36042380     1.03900
O898        O  0.33492003  0.85510164  0.36671348    -0.76600
O899        O  0.28463225  0.85456983  0.34398150    -0.76700
C900        C  0.26619314  0.86340100  0.34291266     1.03800
Cr901      Cr  0.27743577  0.88388468  0.41945636     1.93700
Cr902      Cr  0.34085928  0.89588995  0.42852932     1.93200
Cr903      Cr  0.29563440  0.84068163  0.38892135     1.39100
O904        O  0.30460493  0.87348777  0.41221983    -1.21800
O905        O  0.15245296  0.76849122  0.50092514    -0.84100
O906        O  0.11607098  0.73339553  0.44605732    -0.81100
C907        C  0.10486777  0.71103040  0.42583454     0.99400
O908        O  0.09358988  0.68589071  0.43967313    -0.81200
O909        O  0.14035707  0.67736125  0.45573117    -0.83800
C910        C  0.16318747  0.68052574  0.47185035     1.03900
O911        O  0.17033202  0.69278639  0.50303953    -0.76600
O912        O  0.18077378  0.74903512  0.49519677    -0.76800
C913        C  0.17642296  0.77026761  0.49096761     1.03900
O914        O  0.09349410  0.73179402  0.04496415    -0.84100
O915        O  0.05923483  0.69504916  0.99167929    -0.81100
C916        C  0.04842696  0.67186424  0.01014183     0.99400
O917        O  0.06322924  0.65949737  0.01692388    -0.81200
O918        O  0.11121788  0.65215862  0.03152974    -0.83800
C919        C  0.12012036  0.66207774  0.06338746     1.03900
O920        O  0.12723814  0.68783671  0.07127726    -0.76600
O921        O  0.13730190  0.74324686  0.06577879    -0.76700
C922        C  0.11181473  0.73974116  0.07104225     1.03800
Cr923      Cr  0.11209715  0.73284845  0.50030271     1.93700
Cr924      Cr  0.10597829  0.67257274  0.48422497     1.93200
Cr925      Cr  0.14773104  0.71815773  0.03401195     1.39100
O926        O  0.11617795  0.70456502  0.00556775    -1.21800
O927        O  0.37925114  0.64429440  0.09053148    -0.84100
O928        O  0.37990350  0.61046328  0.03422212    -0.81100
C929        C  0.38968643  0.59779133  0.01433321     0.99400
O930        O  0.40276883  0.58536260  0.02850054    -0.81200
O931        O  0.45777381  0.63140871  0.04252470    -0.83800
C932        C  0.47717778  0.65459737  0.05737369     1.03900
O933        O  0.47293840  0.66216723  0.08891866    -0.76600
O934        O  0.42662952  0.67236406  0.08606737    -0.76800
C935        C  0.40098331  0.66773914  0.08020720     1.03900
O936        O  0.36927630  0.59844168  0.14076242    -0.84100
O937        O  0.36306588  0.56219675  0.08399161    -0.81100
C938        C  0.37621609  0.54956854  0.09709580     0.99400
O939        O  0.40379459  0.56284636  0.10015049    -0.81200
O940        O  0.46140369  0.60763756  0.11101547    -0.83800
C941        C  0.46342681  0.61711056  0.14352611     1.03900
O942        O  0.44764443  0.62752293  0.15376844    -0.76600
O943        O  0.40439945  0.64206545  0.15609276    -0.76700
C944        C  0.38187195  0.61818987  0.16448261     1.03800
Cr945      Cr  0.37583722  0.60481970  0.08772640     1.93700
Cr946      Cr  0.42992412  0.59799995  0.07223154     1.93200
Cr947      Cr  0.43614396  0.64883008  0.11929257     1.39100
O948        O  0.41409183  0.61726496  0.09303981    -1.21800
O949        O  0.26562577  0.60449188  0.42119510    -0.84100
O950        O  0.23572751  0.61540263  0.36844607    -0.81100
C951        C  0.21451202  0.60706464  0.34624372     0.99400
O952        O  0.18831765  0.59378491  0.35761958    -0.81200
O953        O  0.17383021  0.53800413  0.37374816    -0.83800
C954        C  0.17295410  0.51662921  0.38986875     1.03900
O955        O  0.18126740  0.51889110  0.42299470    -0.76600
O956        O  0.23971398  0.55669768  0.41966942    -0.76800
C957        C  0.26284856  0.57983613  0.41265369     1.03900
O958        O  0.23574512  0.62157703  0.47759852    -0.84100
O959        O  0.20814187  0.63505361  0.42287910    -0.81100
C960        C  0.18084238  0.62424859  0.42887286     0.99400
O961        O  0.16376666  0.59726725  0.42691770    -0.81200
O962        O  0.14604020  0.53974427  0.44109778    -0.83800
C963        C  0.15224207  0.53830236  0.47457918     1.03900
O964        O  0.17844815  0.55072431  0.48563423    -0.76600
O965        O  0.23859448  0.58263995  0.48821263    -0.76700
C966        C  0.24032629  0.60591362  0.49971294     1.03800
Cr967      Cr  0.23409264  0.61639524  0.42288547     1.93700
Cr968      Cr  0.17083514  0.56837980  0.40180323     1.93200
Cr969      Cr  0.20920165  0.55440271  0.45206914     1.39100
O970        O  0.20477798  0.57993686  0.42522652    -1.21800
O971        O  0.35474450  0.61455937  0.34847259    -0.84100
O972        O  0.38928653  0.60452011  0.39749021    -0.81100
C973        C  0.40420050  0.59388495  0.41081432     0.99400
O974        O  0.41566066  0.58310458  0.39020716    -0.81200
O975        O  0.36584545  0.53138828  0.37434290    -0.83800
C976        C  0.34157411  0.51379614  0.35963420     1.03900
O977        O  0.33205949  0.52104159  0.33168619    -0.76600
O978        O  0.32401874  0.56795065  0.34663716    -0.76800
C979        C  0.33031235  0.59323886  0.35665166     1.03900
O980        O  0.39801002  0.62732556  0.29316310    -0.84100
O981        O  0.43501701  0.62514649  0.34326668    -0.81100
C982        C  0.44539756  0.61369666  0.32198711     0.99400
O983        O  0.43144695  0.58695747  0.31473061    -0.81200
O984        O  0.38487111  0.53188344  0.30179813    -0.83800
C985        C  0.37423295  0.53323899  0.27113717     1.03900
O986        O  0.36391938  0.55006523  0.26676810    -0.76600
O987        O  0.35310268  0.59483914  0.27703032    -0.76700
C988        C  0.37790070  0.61648595  0.26928166     1.03800
Cr989      Cr  0.39307928  0.61516484  0.34490849     1.93700
Cr990      Cr  0.39818926  0.55990521  0.34435979     1.93200
Cr991      Cr  0.34544367  0.55989225  0.30746558     1.39100
O992        O  0.37871714  0.57815043  0.33217095    -1.21800
O993        O  0.14661287  0.88990802  0.12145309    -0.84100
O994        O  0.09895620  0.89211405  0.14398819    -0.81100
C995        C  0.10453172  0.91517932  0.16131696     0.99400
O996        O  0.11122647  0.93864372  0.14519532    -0.81200
O997        O  0.14322116  0.98195194  0.09702906    -0.83800
C998        C  0.16759528  0.98852694  0.11141541     1.03900
O999        O  0.17880677  0.97254757  0.10529469    -0.76600
O1000       O  0.18165071  0.92261434  0.08776518    -0.76800
C1001       C  0.17303637  0.90351618  0.11253616     1.03900
O1002       O  0.12287918  0.87505277  0.04724340    -0.84100
O1003       O  0.07456838  0.87515547  0.06999613    -0.81100
C1004       C  0.05784068  0.88479267  0.07830095     0.99400
O1005       O  0.06792938  0.90969646  0.09178829    -0.81200
O1006       O  0.10511817  0.94980571  0.03898644    -0.83800
C1007       C  0.12853927  0.96679099  0.02246298     1.03900
O1008       O  0.15293738  0.96945096  0.03290598    -0.76600
O1009       O  0.14981302  0.91718010  0.01993857    -0.76700
C1010       C  0.13354652  0.88982861  0.01847663     1.03800
Cr1011     Cr  0.11219520  0.88645630  0.09467669     1.93700
Cr1012     Cr  0.10837604  0.94308284  0.09223599     1.93200
Cr1013     Cr  0.16313845  0.94371653  0.06320230     1.39100
O1014       O  0.12790949  0.92405138  0.08340056    -1.21800
O1015       O  0.10167433  0.75429493  0.28084451    -0.84100
O1016       O  0.11097130  0.71133731  0.30471830    -0.81100
C1017       C  0.08980028  0.69238502  0.32339825     0.99400
O1018       O  0.06622202  0.67375838  0.30846829    -0.81200
O1019       O  0.01920607  0.65735702  0.26389198    -0.83800
C1020       C  0.01112606  0.67470136  0.27564210     1.03900
O1021       O  0.02447793  0.70094477  0.26578575    -0.76600
O1022       O  0.07007343  0.75310387  0.24060834    -0.76800
C1023       C  0.08607961  0.76435568  0.26860448     1.03900
O1024       O  0.11810431  0.74758113  0.20525000    -0.84100
O1025       O  0.12718608  0.70434202  0.23002715    -0.81100
C1026       C  0.11996372  0.67849860  0.23750940     0.99400
O1027       O  0.09603642  0.66219131  0.25284424    -0.81200
O1028       O  0.04997039  0.65092701  0.20393429    -0.83800
C1029       C  0.02994182  0.65358248  0.18798474     1.03900
O1030       O  0.02488427  0.67374308  0.19721377    -0.76600
O1031       O  0.07501238  0.72344897  0.17728297    -0.76700
C1032       C  0.10258524  0.73950038  0.17596823     1.03800
Cr1033     Cr  0.11144182  0.72734496  0.25427672     1.93700
Cr1034     Cr  0.05935766  0.66425811  0.25604978     1.93200
Cr1035     Cr  0.05064283  0.71214153  0.22203379     1.39100
O1036       O  0.07418136  0.70142848  0.24408737    -1.21800
O1037       O  0.39196556  0.73314034  0.01748769    -0.84100
O1038       O  0.39086940  0.77236038  0.06449337    -0.81100
C1039       C  0.39765008  0.79648591  0.07904323     0.99400
O1040       O  0.40432325  0.81789987  0.05871687    -0.81200
O1041       O  0.46096240  0.82595020  0.05358646    -0.83800
C1042       C  0.48146783  0.82224717  0.04137802     1.03900
O1043       O  0.47940049  0.81003092  0.01053550    -0.76600
O1044       O  0.43935932  0.75353510  0.00854940    -0.76800
C1045       C  0.41602123  0.73329463  0.02106488     1.03900
O1046       O  0.39524955  0.77036000  0.45023216    -0.84100
O1047       O  0.37893615  0.79697615  0.50198948    -0.81100
C1048       C  0.39132411  0.82299051  0.49071602     0.99400
O1049       O  0.40719963  0.83322230  0.98417690    -0.81200
O1050       O  0.47823865  0.85641618  0.49790101    -0.83800
C1051       C  0.48553202  0.85164991  0.46680213     1.03900
O1052       O  0.47216238  0.82660818  0.45264930    -0.76600
O1053       O  0.43544276  0.76775009  0.44402368    -0.76700
C1054       C  0.41279567  0.76682390  0.43020236     1.03800
Cr1055     Cr  0.38413332  0.76618909  0.01023502     1.93700
Cr1056     Cr  0.43361360  0.82904646  0.01885547     1.93200
Cr1057     Cr  0.46081093  0.79302924  0.48538949     1.39100
O1058       O  0.42107413  0.79331006  0.00173135    -1.21800
O1059       O  0.26863445  0.66065707  0.17903945    -0.84100
O1060       O  0.22831667  0.61997903  0.22588756    -0.81100
C1061       C  0.20346841  0.60496519  0.24052671     0.99400
O1062       O  0.18058148  0.59366257  0.22081280    -0.81200
O1063       O  0.17395454  0.64156380  0.20701045    -0.83800
C1064       C  0.17707514  0.66441098  0.19202112     1.03900
O1065       O  0.19039765  0.67294239  0.16185573    -0.76600
O1066       O  0.24680430  0.68692180  0.17506421    -0.76800
C1067       C  0.26782365  0.68378661  0.18611030     1.03900
O1068       O  0.24176745  0.61802797  0.11744329    -0.84100
O1069       O  0.20604596  0.57688154  0.16590141    -0.81100
C1070       C  0.18117410  0.56409431  0.14993283     0.99400
O1071       O  0.16602271  0.57641818  0.14608788    -0.81200
O1072       O  0.15355018  0.62072043  0.13514316    -0.81400
C1073       C  0.16331735  0.63083965  0.10379475     1.03900
O1074       O  0.19018362  0.64168877  0.09700243    -0.76600
O1075       O  0.24931358  0.66158332  0.10638409    -0.76700
C1076       C  0.24868106  0.63870594  0.09526940     1.03800
Cr1077     Cr  0.23452361  0.61982434  0.17135375     1.93700
Cr1078     Cr  0.17150518  0.60963622  0.17615458     1.93200
Cr1079     Cr  0.21853953  0.66327001  0.13690590     1.39100
O1080       O  0.20829353  0.63096233  0.16173263    -1.21800
C1081       C  0.16270039  0.67996983  0.20718701    -0.15200
C1082       C  0.13890722  0.66619665  0.22824930    -0.30300
H1083       H  0.16922657  0.70156509  0.19694763     0.13900
H1084       H  0.13160357  0.64400064  0.23672581     0.14400
C1085       C  0.02619715  0.86740898  0.07188807    -0.15200
C1086       C  0.01360370  0.83989877  0.05994695    -0.30300
H1087       H  0.01323246  0.87822648  0.07449848     0.13900
H1088       H  0.52418288  0.82639429  0.05447293     0.14400
C1089       C  0.18301539  0.52266927  0.11995892    -0.15200
C1090       C  0.16814315  0.53375480  0.13743215    -0.30300
H1091       H  0.20621228  0.53624657  0.11430719     0.13900
H1092       H  0.14442838  0.52075492  0.13946480     0.14400
C1093       C  0.48539743  0.65944745  0.29773478    -0.15200
C1094       C  0.47389291  0.63103398  0.30548484    -0.30300
H1095       H  0.97315545  0.67466468  0.30287242     0.13900
H1096       H  0.48431866  0.61888805  0.29591966     0.14400
C1097       C  0.28618245  0.57674220  0.39424622    -0.15200
C1098       C  0.30922768  0.59848648  0.37759609    -0.30300
H1099       H  0.28302977  0.55488624  0.39216700     0.13900
H1100       H  0.31283963  0.62049536  0.37956979     0.14400
C1101       C  0.12905563  0.98649219  0.99340785    -0.15200
C1102       C  0.12996393  0.51870505  0.50040792    -0.30300
H1103       H  0.12837822  0.97978483  0.96499129     0.13900
H1104       H  0.13376572  0.52607305  0.52891669     0.14400
C1105       C  0.24668730  0.61064283  0.03903984    -0.15200
C1106       C  0.25405981  0.63623815  0.05546475    -0.30300
H1107       H  0.23984668  0.59162889  0.05619393     0.13900
H1108       H  0.25998432  0.65511707  0.03840034     0.14400
C1109       C  0.22068283  0.61310200  0.30635032    -0.15200
C1110       C  0.19955725  0.59963149  0.28068411    -0.30300
H1111       H  0.24295504  0.62816293  0.29797335     0.13900
H1112       H  0.17747736  0.58439160  0.28960289     0.14400
C1113       C  0.41801056  0.71000246  0.04047947    -0.15200
C1114       C  0.39637692  0.68958850  0.06069831    -0.30300
H1115       H  0.43900582  0.71056204  0.03927605     0.13900
H1116       H  0.37507917  0.68833174  0.06180948     0.14400
C1117       C  0.01124865  0.63334764  0.15890851    -0.15200
C1118       C  0.48631485  0.61951280  0.16925787    -0.30300
H1119       H  0.01862913  0.63997745  0.13093594     0.13900
H1120       H  0.48073804  0.61799980  0.19824006     0.14400
C1121       C  0.38467160  0.62841469  0.23157472    -0.15200
C1122       C  0.36999914  0.61211764  0.20225247    -0.30300
H1123       H  0.40507537  0.64855178  0.22749586     0.13900
H1124       H  0.35045257  0.59125840  0.20662775     0.14400
C1125       C  0.38862876  0.58972548  0.47463317    -0.15200
C1126       C  0.40952056  0.59460318  0.45026420    -0.30300
H1127       H  0.36708766  0.58544540  0.46533615     0.13900
H1128       H  0.43051386  0.59724231  0.45930851     0.14400
C1129       C  0.12746120  0.64550681  0.08914526    -0.15200
C1130       C  0.14437355  0.63460039  0.07738415    -0.30300
H1131       H  0.12568951  0.64858676  0.11839964     0.13900
H1132       H  0.14943455  0.63525672  0.04833238     0.14400
C1133       C  0.11722078  0.74736552  0.13948455    -0.15200
C1134       C  0.10162103  0.74258476  0.10807491    -0.30300
H1135       H  0.14035149  0.75387666  0.13825906     0.13900
H1136       H  0.07861069  0.73651686  0.10994771     0.14400
C1137       C  0.10483311  0.71416155  0.38546941    -0.15200
C1138       C  0.09210071  0.69068662  0.36344240    -0.30300
H1139       H  0.11518025  0.73579207  0.37372699     0.13900
H1140       H  0.08040773  0.66916441  0.37541574     0.14400
C1141       C  0.01826162  0.65809744  0.02359058    -0.15200
C1142       C  0.00343719  0.67220669  0.03200531    -0.30300
H1143       H  0.00908201  0.63532063  0.03057016     0.13900
H1144       H  0.51941144  0.69481001  0.04699333     0.14400
C1145       C  0.16726958  0.64247828  0.43746131    -0.15200
C1146       C  0.18056954  0.66772956  0.45630368    -0.30300
H1147       H  0.14386232  0.63264736  0.43198361     0.13900
H1148       H  0.20321817  0.67647102  0.46519778     0.14400
C1149       C  0.21924514  0.79687671  0.45200118    -0.15200
C1150       C  0.19960657  0.79747819  0.47491153    -0.30300
H1151       H  0.21739463  0.77609421  0.44473940     0.13900
H1152       H  0.19976710  0.81772663  0.48046768     0.14400
C1153       C  0.33704660  0.97084087  0.39502178    -0.15200
C1154       C  0.32467287  0.98090772  0.37104917    -0.30300
H1155       H  0.35824302  0.98574365  0.40728869     0.13900
H1156       H  0.30324369  0.46946109  0.36317941     0.14400
C1157       C  0.37462158  0.83583755  0.47388817    -0.15200
C1158       C  0.34601843  0.82143234  0.46363253    -0.30300
H1159       H  0.37513394  0.85095494  0.95905349     0.13900
H1160       H  0.33267533  0.79828364  0.46843477     0.14400
C1161       C  0.22149688  0.91733303  0.13910994    -0.15200
C1162       C  0.19396313  0.89656369  0.13160637    -0.30300
H1163       H  0.22807108  0.93951914  0.13130397     0.13900
H1164       H  0.18608509  0.87474071  0.14192755     0.14400
C1165       C  0.36911087  0.98341617  0.26120504    -0.15200
C1166       C  0.37029514  0.51297709  0.24106268    -0.30300
H1167       H  0.36600946  0.97822336  0.29031061     0.13900
H1168       H  0.36241455  0.51701038  0.21516280     0.14400
C1169       C  0.25837043  0.87178571  0.30756035    -0.15200
C1170       C  0.26317973  0.86263226  0.27533931    -0.30300
H1171       H  0.25170374  0.88822765  0.30808217     0.13900
H1172       H  0.26888218  0.84547235  0.27531081     0.14400
C1173       C  0.29146250  0.89614795  0.03082269    -0.15200
C1174       C  0.31134209  0.89793112  0.05542040    -0.30300
H1175       H  0.27256108  0.89784418  0.03949166     0.13900
H1176       H  0.33106977  0.89798578  0.04626871     0.14400
C1177       C  0.33161458  0.50366214  0.11789951    -0.15200
C1178       C  0.36030520  0.51898952  0.10871424    -0.30300
H1179       H  0.33536238  0.02569122  0.15352832     0.13900
H1180       H  0.37430153  0.50947980  0.11316248     0.14400
C1181       C  0.29132729  0.70844309  0.20667384    -0.15200
C1182       C  0.31330994  0.70800913  0.22540245    -0.30300
H1183       H  0.28966396  0.72811606  0.20720558     0.13900
H1184       H  0.31559064  0.68870304  0.22519029     0.14400
C1185       C  0.40167675  0.78310169  0.14307685    -0.15200
C1186       C  0.39910303  0.80095008  0.11912631    -0.30300
H1187       H  0.40014109  0.76292411  0.13352855     0.13900
H1188       H  0.40025622  0.82086775  0.12910478     0.14400
C1189       C  0.40802003  0.76304871  0.38995105    -0.15200
C1190       C  0.38364998  0.76028486  0.37373276    -0.30300
H1191       H  0.42604114  0.76521544  0.37315606     0.13900
H1192       H  0.36548197  0.75763335  0.39061322     0.14400
C1193       C  0.38999058  0.86638183  0.33939064    -0.15200
C1194       C  0.37749416  0.88293901  0.33340725    -0.30300
H1195       H  0.39089200  0.86009467  0.36764979     0.13900
H1196       H  0.37445808  0.88811996  0.30540041     0.14400
C1197       C  0.33169279  0.83583343  0.20713922    -0.15200
C1198       C  0.34611997  0.86054628  0.18796126    -0.30300
H1199       H  0.30900727  0.82795427  0.21474654     0.13900
H1200       H  0.36964113  0.87010086  0.18427788     0.14400
C1201       C  0.08527082  0.78890465  0.28721231    -0.15200
C1202       C  0.10535477  0.80684254  0.31204824    -0.30300
H1203       H  0.06715686  0.79247129  0.27984920     0.13900
H1204       H  0.12481309  0.80515967  0.31784662     0.14400
C1205       C  0.01049547  0.87411549  0.40583903    -0.15200
C1206       C  0.51331707  0.87342170  0.45083979    -0.30300
H1207       H  0.99041315  0.86366234  0.38946940     0.13900
H1208       H  0.53292052  0.88122865  0.46788826     0.14400
C1209       C  0.14065607  0.97927232  0.36036370    -0.15200
C1210       C  0.16980834  0.99547897  0.36678469    -0.30300
H1211       H  0.12648623  0.98791057  0.36828418     0.13900
H1212       H  0.16940182  0.47410344  0.37794098     0.14400
C1213       C  0.50046130  0.82991838  0.29286005    -0.15200
C1214       C  0.48689767  0.84287204  0.27634963    -0.30300
H1215       H  0.98539066  0.80324445  0.28953290     0.13900
H1216       H  0.49845876  0.86641383  0.27432362     0.14400
C1217       C  0.13583964  0.89180287  0.45038037    -0.15200
C1218       C  0.12101183  0.87839740  0.48080242    -0.30300
H1219       H  0.15634439  0.91214384  0.45323210     0.13900
H1220       H  0.09989219  0.85872936  0.47803646     0.14400
C1221       C  0.11235313  0.89998216  0.22169503    -0.15200
C1222       C  0.10318206  0.91506566  0.20130140    -0.30300
H1223       H  0.12045574  0.88684574  0.20864513     0.13900
H1224       H  0.09664865  0.92949208  0.21426233     0.14400
O1225       O  0.12184972  0.85339352  0.83736023    -0.84100
O1226       O  0.12058201  0.88748506  0.78316561    -0.81100
C1227       C  0.11243782  0.90179505  0.76387347     0.99400
O1228       O  0.09977972  0.91430248  0.77846230    -0.81200
O1229       O  0.04521291  0.86589016  0.78993335    -0.83800
C1230       C  0.02570346  0.84291296  0.80479634     1.03900
O1231       O  0.02940023  0.83586394  0.83691728    -0.76600
O1232       O  0.07438709  0.82511484  0.83843348    -0.76800
C1233       C  0.09929106  0.82973651  0.82884638     1.03900
O1234       O  0.13356423  0.89945658  0.88917004    -0.84100
O1235       O  0.13756786  0.93553407  0.83519817    -0.81100
C1236       C  0.12448634  0.94830059  0.84823500     0.99400
O1237       O  0.09681205  0.93540070  0.84978073    -0.81200
O1238       O  0.03886267  0.88926947  0.85556845    -0.83800
C1239       C  0.03474056  0.87927374  0.88766721     1.03900
O1240       O  0.05208373  0.87176437  0.90163567    -0.76600
O1241       O  0.09687658  0.85823128  0.90822782    -0.76700
C1242       C  0.12095081  0.88152393  0.91431616     1.03800
Cr1243     Cr  0.12536693  0.89295623  0.83665583     1.93700
Cr1244     Cr  0.07172161  0.90004709  0.82037058     1.93200
Cr1245     Cr  0.06524372  0.85005564  0.86957139     1.39100
O1246       O  0.08739282  0.88097100  0.84252298    -1.21800
O1247       O  0.36136661  0.73820835  0.74940628    -0.84100
O1248       O  0.39479210  0.77970305  0.69851223    -0.81100
C1249       C  0.40818054  0.80433064  0.68357577     0.99400
O1250       O  0.42091959  0.82710917  0.70315815    -0.81200
O1251       O  0.37292347  0.83139496  0.72272667    -0.83800
C1252       C  0.34904069  0.82523751  0.73798468     1.03900
O1253       O  0.34162675  0.81097159  0.76763217    -0.76600
O1254       O  0.33204566  0.75638213  0.75298662    -0.76800
C1255       C  0.33707185  0.73667161  0.74215135     1.03900
O1256       O  0.40738137  0.76815587  0.80329428    -0.84100
O1257       O  0.44325385  0.80474297  0.75074379    -0.81100
C1258       C  0.45598860  0.82806343  0.76928416     0.99400
O1259       O  0.44264637  0.84164398  0.77753476    -0.81200
O1260       O  0.39609593  0.85156599  0.79410589    -0.83800
C1261       C  0.38610987  0.84064152  0.82517309     1.03900
O1262       O  0.37662984  0.81402967  0.83063885    -0.76600
O1263       O  0.36322101  0.75755039  0.82068924    -0.76700
C1264       C  0.38786695  0.75938034  0.82757653     1.03800
Cr1265     Cr  0.40068739  0.77440574  0.75136481     1.93700
Cr1266     Cr  0.40696034  0.83518002  0.75061783     1.93200
Cr1267     Cr  0.35567694  0.78545747  0.79101617     1.39100
O1268       O  0.38774014  0.79840254  0.76447341    -1.21800
O1269       O  0.24639271  0.88211459  0.63285293    -0.84100
O1270       O  0.29285504  0.87337988  0.61570039    -0.81100
C1271       C  0.30758087  0.89402549  0.59402594     0.99400
O1272       O  0.32193201  0.91976631  0.60563310    -0.81200
O1273       O  0.33911715  0.96765875  0.64884084    -0.83800
C1274       C  0.32149712  0.97717277  0.64454664     1.03900
O1275       O  0.29495572  0.96199518  0.65404478    -0.76600
O1276       O  0.24368758  0.91160225  0.67329631    -0.76800
C1277       C  0.23461793  0.89653005  0.64407006     1.03900
O1278       O  0.25010783  0.86691972  0.70827130    -0.84100
O1279       O  0.29904284  0.86362268  0.69211681    -0.81100
C1280       C  0.32517784  0.87189066  0.68329600     0.99400
O1281       O  0.33884088  0.89352916  0.66267538    -0.81200
O1282       O  0.35047832  0.94057518  0.70818604    -0.83800
C1283       C  0.34557594  0.95864971  0.72491682     1.03900
O1284       O  0.32208101  0.95931045  0.71964563    -0.76600
O1285       O  0.27476975  0.90769421  0.73864477    -0.76700
C1286       C  0.25961573  0.88035688  0.73834638     1.03800
Cr1287     Cr  0.27383479  0.87448491  0.66285464     1.93700
Cr1288     Cr  0.33452762  0.92880773  0.65737706     1.93200
Cr1289     Cr  0.28436780  0.93308819  0.69473293     1.39100
O1290       O  0.29752189  0.91225754  0.67154454    -1.21800
O1291       O  0.24017747  0.84423841  0.94361931    -0.84100
O1292       O  0.28069028  0.89791886  0.96824160    -0.81100
C1293       C  0.29541244  0.89278113  0.99159356     0.99400
O1294       O  0.31358171  0.88512013  0.98166284    -0.81200
O1295       O  0.33633678  0.85789945  0.94166347    -0.83800
C1296       C  0.31968769  0.83099375  0.94533949     1.03900
O1297       O  0.29396028  0.81880582  0.93185459    -0.76600
O1298       O  0.24307627  0.81557656  0.90232507    -0.76800
C1299       C  0.23105341  0.81923698  0.93024333     1.03900
O1300       O  0.24835650  0.86591493  0.86923285    -0.84100
O1301       O  0.29258438  0.91830007  0.89373748    -0.81100
C1302       C  0.31759069  0.93652829  0.90604495     0.99400
O1303       O  0.33146533  0.92883998  0.92734357    -0.81200
O1304       O  0.34965538  0.89716153  0.88340643    -0.83800
C1305       C  0.34800265  0.87541812  0.86669025     1.03900
O1306       O  0.32561530  0.85062385  0.86970945    -0.76600
O1307       O  0.27750319  0.85293282  0.84257067    -0.76700
C1308       C  0.26027860  0.86321122  0.84062174     1.03800
Cr1309     Cr  0.26749461  0.88063738  0.91816026     1.93700
Cr1310     Cr  0.32979534  0.89070675  0.93191295     1.93200
Cr1311     Cr  0.28535337  0.83693846  0.88834147     1.39100
O1312       O  0.29421301  0.86942630  0.91277356    -1.21800
O1313       O  0.13950977  0.76466783  0.99317555    -0.84100
O1314       O  0.10754718  0.72281151  0.93998326    -0.81100
C1315       C  0.09461836  0.69813782  0.92451835     0.99400
O1316       O  0.08304365  0.67538333  0.94353972    -0.81200
O1317       O  0.13390282  0.67418722  0.96229123    -0.83800
C1318       C  0.15754947  0.68059664  0.97921223     1.03900
O1319       O  0.16414475  0.69504705  0.00908687    -0.76600
O1320       O  0.17111838  0.74922888  0.99868449    -0.76800
C1321       C  0.16486306  0.76817407  0.98822885     1.03900
O1322       O  0.10750517  0.73394599  0.55465168    -0.84100
O1323       O  0.06880747  0.70312958  0.49852729    -0.81100
C1324       C  0.05623027  0.67719635  0.50993216     0.99400
O1325       O  0.06979000  0.66313238  0.51094117    -0.81200
O1326       O  0.11501187  0.65254840  0.52467244    -0.83800
C1327       C  0.12367168  0.66088424  0.55727965     1.03900
O1328       O  0.13556613  0.68725771  0.56629965    -0.76600
O1329       O  0.15299171  0.74506804  0.56442238    -0.76700
C1330       C  0.12913491  0.74214442  0.57631613     1.03800
Cr1331     Cr  0.10124211  0.72710095  0.99313371     1.93700
Cr1332     Cr  0.09888339  0.66810125  0.98977560     1.93200
Cr1333     Cr  0.15753645  0.71785899  0.53019489     1.39100
O1334       O  0.12516214  0.70766878  0.50454227    -1.21800
O1335       O  0.38505226  0.63832045  0.55632463    -0.84100
O1336       O  0.37405695  0.58477678  0.53657682    -0.81100
C1337       C  0.39456512  0.59070435  0.51420959     0.99400
O1338       O  0.42007878  0.59788169  0.52542109    -0.81200
O1339       O  0.47055555  0.62666201  0.56595093    -0.83800
C1340       C  0.47951215  0.65303346  0.55851397     1.03900
O1341       O  0.46489476  0.66485874  0.56888066    -0.76600
O1342       O  0.41810889  0.67018592  0.59398660    -0.76800
C1343       C  0.40140555  0.66416990  0.56620662     1.03900
O1344       O  0.37253984  0.62040418  0.63276899    -0.84100
O1345       O  0.36443169  0.56732596  0.61265439    -0.81100
C1346       C  0.37121898  0.54876916  0.60229015     0.99400
O1347       O  0.39332174  0.55599431  0.58228351    -0.81200
O1348       O  0.44226275  0.58971839  0.62690488    -0.83800
C1349       C  0.46131526  0.61200409  0.64391845     1.03900
O1350       O  0.46543510  0.63699523  0.63606235    -0.76600
O1351       O  0.41586984  0.63715179  0.65881423    -0.76700
C1352       C  0.38842544  0.62646653  0.66137195     1.03800
Cr1353     Cr  0.37713997  0.60379528  0.58526776     1.93700
Cr1354     Cr  0.43015623  0.59402807  0.57634769     1.93200
Cr1355     Cr  0.43900704  0.64976233  0.61286212     1.39100
O1356       O  0.41531818  0.61581653  0.59170530    -1.21800
O1357       O  0.26764775  0.62409185  0.90050668    -0.84100
O1358       O  0.22472624  0.63252324  0.87201865    -0.81100
C1359       C  0.21090078  0.61396669  0.84661743     0.99400
O1360       O  0.19113495  0.58838132  0.85412264    -0.81200
O1361       O  0.16574678  0.53543164  0.88886202    -0.83800
C1362       C  0.18271590  0.52611719  0.88002309     1.03900
O1363       O  0.20920944  0.54009843  0.88989548    -0.76600
O1364       O  0.26029483  0.58197204  0.92021427    -0.76800
C1365       C  0.27502028  0.60483603  0.90215858     1.03900
O1366       O  0.24846021  0.62608916  0.97614008    -0.84100
O1367       O  0.20608480  0.63595396  0.94766852    -0.81100
C1368       C  0.18204092  0.63038068  0.93307521     0.99400
O1369       O  0.17022347  0.61024019  0.90985092    -0.81200
O1370       O  0.15484159  0.55914937  0.95155947    -0.83800
C1371       C  0.15800870  0.53888953  0.96564633     1.03900
O1372       O  0.17994324  0.53593765  0.95800857    -0.76600
O1373       O  0.23012907  0.57942562  0.98752219    -0.76700
C1374       C  0.24208824  0.60544036  0.99850055     1.03800
Cr1375     Cr  0.23462862  0.62632544  0.92408871     1.93700
Cr1376     Cr  0.17380003  0.57483304  0.90294804     1.93200
Cr1377     Cr  0.21936692  0.56195715  0.93764231     1.39100
O1378       O  0.20961542  0.58798932  0.92200394    -1.21800
O1379       O  0.34933930  0.60677971  0.84392317    -0.84100
O1380       O  0.38229135  0.59814789  0.89579342    -0.81100
C1381       C  0.39607369  0.58732060  0.91162122     0.99400
O1382       O  0.40815810  0.57612449  0.89302307    -0.81200
O1383       O  0.35825668  0.52619559  0.87251473    -0.83800
C1384       C  0.33582077  0.50837082  0.85462420     1.03900
O1385       O  0.32996967  0.51509607  0.82340438    -0.76600
O1386       O  0.31969761  0.56045579  0.83305759    -0.76800
C1387       C  0.32437874  0.58429423  0.84652638     1.03900
O1388       O  0.39704123  0.62258027  0.79210166    -0.84100
O1389       O  0.43135700  0.61918712  0.84488418    -0.81100
C1390       C  0.44330316  0.60690132  0.82768202     0.99400
O1391       O  0.42947667  0.58009705  0.82069060    -0.81200
O1392       O  0.38326804  0.52567925  0.80383581    -0.83800
C1393       C  0.37708123  0.52842401  0.77103969     1.03900
O1394       O  0.36877092  0.54641041  0.76339340    -0.76600
O1395       O  0.35489483  0.58978383  0.76855074    -0.76700
C1396       C  0.37961031  0.61260820  0.76520637     1.03800
Cr1397     Cr  0.38888660  0.60899819  0.84321744     1.93700
Cr1398     Cr  0.39354306  0.55358892  0.84624594     1.93200
Cr1399     Cr  0.34546223  0.55444396  0.79930532     1.39100
O1400       O  0.37583961  0.57241675  0.82949893    -1.21800
O1401       O  0.15837212  0.89868002  0.59505174    -0.84100
O1402       O  0.12492874  0.90712796  0.64686612    -0.81100
C1403       C  0.11098443  0.91790261  0.66233604     0.99400
O1404       O  0.09918800  0.92950502  0.64372359    -0.81200
O1405       O  0.14729335  0.97980301  0.62318562    -0.83800
C1406       C  0.16960367  0.99766910  0.60588335     1.03900
O1407       O  0.17623604  0.99042868  0.57567934    -0.76600
O1408       O  0.18737136  0.94556379  0.58952161    -0.76800
C1409       C  0.18309103  0.92119389  0.60032638     1.03900
O1410       O  0.11050317  0.88260069  0.54267445    -0.84100
O1411       O  0.07578666  0.88522494  0.59635269    -0.81100
C1412       C  0.06263096  0.89691171  0.58041232     0.99400
O1413       O  0.07624535  0.92316012  0.57121300    -0.81200
O1414       O  0.12168807  0.97700235  0.55296137    -0.83800
C1415       C  0.12851985  0.97366846  0.52083548     1.03900
O1416       O  0.13894553  0.95714564  0.51488651    -0.76600
O1417       O  0.15400145  0.91501553  0.52342668    -0.76700
C1418       C  0.12925648  0.89256083  0.51757152     1.03800
Cr1419     Cr  0.11843368  0.89603826  0.59428865     1.93700
Cr1420     Cr  0.11247891  0.95086200  0.59653180     1.93200
Cr1421     Cr  0.16204712  0.95063140  0.55299880     1.39100
O1422       O  0.13101407  0.93250166  0.58121604    -1.21800
O1423       O  0.10169900  0.76612102  0.75228203    -0.84100
O1424       O  0.11139377  0.73364916  0.80078403    -0.81100
C1425       C  0.10234054  0.71166421  0.82084955     0.99400
O1426       O  0.08870423  0.68619997  0.80734930    -0.81200
O1427       O  0.03242983  0.67286806  0.79346126    -0.83800
C1428       C  0.01081793  0.67314336  0.77883419     1.03900
O1429       O  0.01303241  0.68434749  0.74767256    -0.76600
O1430       O  0.05373189  0.74189672  0.75766515    -0.76800
C1431       C  0.07814004  0.76387612  0.76506343     1.03900
O1432       O  0.11481332  0.73619121  0.69230071    -0.84100
O1433       O  0.12917270  0.70750874  0.74376296    -0.81100
C1434       C  0.11772878  0.68098088  0.73462548     0.99400
O1435       O  0.09045227  0.66456471  0.73505544    -0.81200
O1436       O  0.03309251  0.64888870  0.72228558    -0.83800
C1437       C  0.03167864  0.65715831  0.68997777     1.03900
O1438       O  0.04258200  0.68372188  0.68253779    -0.76600
O1439       O  0.07729588  0.74287026  0.68611188    -0.76700
C1440       C  0.09880611  0.74205274  0.67214296     1.03800
Cr1441     Cr  0.11156147  0.73382587  0.74675816     1.93700
Cr1442     Cr  0.06230880  0.67099516  0.76301382     1.93200
Cr1443     Cr  0.04867623  0.71282516  0.72032410     1.39100
O1444       O  0.07427821  0.70578847  0.74369400    -1.21800
O1445       O  0.40490624  0.73711509  0.50680603    -0.84100
O1446       O  0.39450630  0.76768691  0.55906024    -0.81100
C1447       C  0.40063790  0.78913494  0.57960553     0.99400
O1448       O  0.41125187  0.81425548  0.56605091    -0.81200
O1449       O  0.46883539  0.82666267  0.56464993    -0.83800
C1450       C  0.49152991  0.82662094  0.55345844     1.03900
O1451       O  0.49237314  0.81719459  0.52179781    -0.76600
O1452       O  0.45229394  0.76007988  0.51743876    -0.76800
C1453       C  0.42760291  0.73776540  0.52025153     1.03900
O1454       O  0.37472081  0.75770388  0.95721052    -0.84100
O1455       O  0.36807946  0.79375540  0.00374790    -0.81100
C1456       C  0.37965121  0.81752200  0.98614013     0.99400
O1457       O  0.41868877  0.83914883  0.49416131    -0.81200
O1458       O  0.46739116  0.85042961  0.98516755    -0.83800
C1459       C  0.47242892  0.84340547  0.95428029     1.03900
O1460       O  0.45585867  0.81822256  0.94204743    -0.76600
O1461       O  0.41588125  0.76027363  0.93879360    -0.76700
C1462       C  0.39006529  0.75544076  0.93224784     1.03800
Cr1463     Cr  0.39606395  0.77007609  0.50465835     1.93700
Cr1464     Cr  0.44313013  0.83153155  0.52881224     1.93200
Cr1465     Cr  0.44546011  0.78580412  0.97675854     1.39100
O1466       O  0.43335739  0.79817055  0.50629948    -1.21800
O1467       O  0.26930107  0.66572166  0.67659712    -0.84100
O1468       O  0.23086291  0.62579519  0.72576060    -0.81100
C1469       C  0.20644784  0.60982306  0.74086626     0.99400
O1470       O  0.18309321  0.59809760  0.72200400    -0.81200
O1471       O  0.17371383  0.64444290  0.70804355    -0.83800
C1472       C  0.17656884  0.66723812  0.69319205     1.03900
O1473       O  0.18942808  0.67570544  0.66266819    -0.76600
O1474       O  0.24651659  0.69114379  0.67481156    -0.76800
C1475       C  0.26805682  0.68843500  0.68471836     1.03900
O1476       O  0.24144881  0.62174980  0.61726784    -0.84100
O1477       O  0.20831717  0.58137404  0.66770999    -0.81100
C1478       C  0.18373544  0.56838927  0.65123931     0.99400
O1479       O  0.16810976  0.58019316  0.64758170    -0.81200
O1480       O  0.15321556  0.62232240  0.63622545    -0.81400
C1481       C  0.16267077  0.63099305  0.60429577     1.03900
O1482       O  0.18968607  0.64382734  0.59796581    -0.76600
O1483       O  0.24850779  0.66507902  0.60606766    -0.76700
C1484       C  0.24724626  0.64193726  0.59474357     1.03800
Cr1485     Cr  0.23581513  0.62459583  0.67124455     1.93700
Cr1486     Cr  0.17239705  0.61286307  0.67747439     1.93200
Cr1487     Cr  0.21795128  0.66663609  0.63721136     1.39100
O1488       O  0.20882823  0.63486226  0.66246760    -1.21800
C1489       C  0.16255027  0.68287224  0.70944146    -0.15200
C1490       C  0.13575788  0.66787916  0.72401254    -0.30300
H1491       H  0.17216209  0.70605162  0.70482890     0.13900
H1492       H  0.12530024  0.64432478  0.72503347     0.14400
C1493       C  0.03108125  0.88032714  0.57255840    -0.15200
C1494       C  0.01610845  0.85129243  0.57226692    -0.30300
H1495       H  0.02061893  0.89230397  0.56223989     0.13900
H1496       H  0.53129245  0.83151444  0.58121896     0.14400
C1497       C  0.18679233  0.52606719  0.62467059    -0.15200
C1498       C  0.17147826  0.53875276  0.63678225    -0.30300
H1499       H  0.21044510  0.53659306  0.62806074     0.13900
H1500       H  0.14784793  0.52776455  0.63259784     0.14400
C1501       C  0.48767349  0.65196373  0.80905709    -0.15200
C1502       C  0.47360632  0.62323399  0.81527983    -0.30300
H1503       H  0.96789287  0.66743870  0.79551250     0.13900
H1504       H  0.48333812  0.61021961  0.80663559     0.14400
C1505       C  0.30076190  0.60823973  0.88143033    -0.15200
C1506       C  0.29999377  0.58463350  0.86625127    -0.30300
H1507       H  0.31937642  0.62973867  0.87717365     0.13900
H1508       H  0.28024518  0.56368664  0.86926727     0.14400
C1509       C  0.12826725  0.99169763  0.49053737    -0.15200
C1510       C  0.13622312  0.51662035  0.99013455    -0.30300
H1511       H  0.13148354  0.98518214  0.46330618     0.13900
H1512       H  0.13170553  0.52353280  0.01624431     0.14400
C1513       C  0.24604097  0.61315559  0.53966602    -0.15200
C1514       C  0.25014352  0.63824704  0.55457746    -0.30300
H1515       H  0.24419025  0.59604564  0.55777317     0.13900
H1516       H  0.25218037  0.65543767  0.53649218     0.14400
C1517       C  0.21771884  0.62233434  0.80740563    -0.15200
C1518       C  0.20390843  0.60274761  0.78031933    -0.30300
H1519       H  0.23357233  0.64462965  0.80070127     0.13900
H1520       H  0.18710848  0.58088037  0.78737411     0.14400
C1521       C  0.42599053  0.71287210  0.54026014    -0.15200
C1522       C  0.40113134  0.68763505  0.54481059    -0.30300
H1523       H  0.44622394  0.71576320  0.55263637     0.13900
H1524       H  0.38100519  0.68362139  0.53102110     0.14400
C1525       C  0.01505647  0.63634378  0.66062740    -0.15200
C1526       C  0.47962327  0.61026830  0.67342070    -0.30300
H1527       H  0.02260319  0.64416554  0.63297160     0.13900
H1528       H  0.47123016  0.60862780  0.70107440     0.14400
C1529       C  0.39008081  0.62716246  0.72928584    -0.15200
C1530       C  0.37421327  0.61868669  0.69795673    -0.30300
H1531       H  0.41318951  0.64335895  0.72789338     0.13900
H1532       H  0.35094912  0.60300025  0.69894147     0.14400
C1533       C  0.38549724  0.59730954  0.97427460    -0.15200
C1534       C  0.39906822  0.58777273  0.95176406    -0.30300
H1535       H  0.37193602  0.60577207  0.96311857     0.13900
H1536       H  0.41282295  0.57960922  0.96314931     0.14400
C1537       C  0.12502664  0.64098208  0.58363786    -0.15200
C1538       C  0.14293606  0.63051248  0.57554086    -0.30300
H1539       H  0.12106552  0.64381792  0.61227524     0.13900
H1540       H  0.14987364  0.63117183  0.54725303     0.14400
C1541       C  0.10351059  0.74576075  0.63188228    -0.15200
C1542       C  0.12711797  0.74684082  0.61611126    -0.30300
H1543       H  0.08589330  0.74460460  0.61474694     0.13900
H1544       H  0.14489519  0.74865884  0.63352393     0.14400
C1545       C  0.09173703  0.69463664  0.88433566    -0.15200
C1546       C  0.10734316  0.71613013  0.86085025    -0.30300
H1547       H  0.07638735  0.67312983  0.87372696     0.13900
H1548       H  0.12255785  0.73775865  0.87118842     0.14400
C1549       C  0.02543959  0.66216356  0.52273700    -0.15200
C1550       C  0.00948940  0.67507644  0.53109914    -0.30300
H1551       H  0.01634132  0.63920486  0.52860716     0.13900
H1552       H  0.51598611  0.69284891  0.53349161     0.14400
C1553       C  0.16652231  0.64655686  0.94241093    -0.15200
C1554       C  0.17653138  0.66883636  0.96647479    -0.30300
H1555       H  0.14502314  0.63870607  0.92983227     0.13900
H1556       H  0.19765211  0.67639815  0.97994316     0.14400
C1557       C  0.20681056  0.79349036  0.94748052    -0.15200
C1558       C  0.18744837  0.79473835  0.97034487    -0.30300
H1559       H  0.20489620  0.77253578  0.94113786     0.13900
H1560       H  0.18752286  0.81507316  0.97478131     0.14400
C1561       C  0.33171032  0.96728486  0.89605565    -0.15200
C1562       C  0.32113199  0.97716546  0.86967269    -0.30300
H1563       H  0.35275217  0.98183042  0.90894819     0.13900
H1564       H  0.29852962  0.46321238  0.85378231     0.14400
C1565       C  0.36201789  0.82889215  0.96900578    -0.15200
C1566       C  0.33258634  0.81482530  0.96374928    -0.30300
H1567       H  0.38756050  0.85891381  0.46821605     0.13900
H1568       H  0.31895979  0.79234907  0.97181225     0.14400
C1569       C  0.20977829  0.89576030  0.62312527    -0.15200
C1570       C  0.20726118  0.91982315  0.62010109    -0.30300
H1571       H  0.19448684  0.87598826  0.60862809     0.13900
H1572       H  0.22426011  0.93998615  0.63224945     0.14400
C1573       C  0.36789982  0.98199783  0.74787119    -0.15200
C1574       C  0.37531641  0.50816739  0.74209193    -0.30300
H1575       H  0.37218617  0.97656521  0.77515188     0.13900
H1576       H  0.37119471  0.51323161  0.71442901     0.14400
C1577       C  0.25596230  0.87507937  0.80580144    -0.15200
C1578       C  0.25533766  0.86370468  0.77263430    -0.30300
H1579       H  0.25513893  0.89516143  0.80757666     0.13900
H1580       H  0.25421586  0.84269482  0.77065877     0.14400
C1581       C  0.30853810  0.90553323  0.52927782    -0.15200
C1582       C  0.30871656  0.88775321  0.55514509    -0.30300
H1583       H  0.30588883  0.92399632  0.53677826     0.13900
H1584       H  0.30827276  0.86767028  0.54752032     0.14400
C1585       C  0.32826407  0.50567940  0.63062159    -0.15200
C1586       C  0.35444399  0.51825508  0.61357354    -0.30300
H1587       H  0.32150211  0.01876679  0.63390461     0.13900
H1588       H  0.36518480  0.50553615  0.60827234     0.14400
C1589       C  0.29166581  0.71260815  0.70565087    -0.15200
C1590       C  0.31459056  0.71167766  0.72087279    -0.30300
H1591       H  0.28953959  0.73186058  0.70947867     0.13900
H1592       H  0.31731881  0.69281461  0.71678445     0.14400
C1593       C  0.40998785  0.80738186  0.64322359    -0.15200
C1594       C  0.39608305  0.78493059  0.61966765    -0.30300
H1595       H  0.42353640  0.82914029  0.63253952     0.13900
H1596       H  0.38306431  0.76299736  0.63002467     0.14400
C1597       C  0.37806257  0.74934922  0.89414383    -0.15200
C1598       C  0.39512086  0.75321511  0.86480700    -0.30300
H1599       H  0.35629204  0.74659997  0.88991336     0.13900
H1600       H  0.41717218  0.75671718  0.86910282     0.14400
C1601       C  0.38107976  0.85730876  0.85391758    -0.15200
C1602       C  0.37257237  0.87690301  0.84554870    -0.30300
H1603       H  0.37534972  0.84708413  0.88079652     0.13900
H1604       H  0.37674720  0.88679469  0.81854918     0.14400
C1605       C  0.33044322  0.83643625  0.72254906    -0.15200
C1606       C  0.34065096  0.85670417  0.69618521    -0.30300
H1607       H  0.30927447  0.82979259  0.73491535     0.13900
H1608       H  0.36232528  0.86397623  0.68497347     0.14400
C1609       C  0.07810587  0.78680366  0.78830334    -0.15200
C1610       C  0.10179031  0.80766998  0.80625706    -0.30300
H1611       H  0.05694205  0.78551459  0.79205275     0.13900
H1612       H  0.12315548  0.80942117  0.80272177     0.14400
C1613       C  0.00627037  0.87066637  0.90479467    -0.15200
C1614       C  0.50105954  0.86229565  0.93741199    -0.30300
H1615       H  0.98701887  0.86192218  0.88695244     0.13900
H1616       H  0.51976413  0.87447402  0.95565234     0.14400
C1617       C  0.14133964  0.97892457  0.86043699    -0.15200
C1618       C  0.16831997  0.99070971  0.87587222    -0.30300
H1619       H  0.13015507  0.99159160  0.85948667     0.13900
H1620       H  0.18433727  0.48879504  0.85385046     0.14400
C1621       C  0.49978120  0.82377937  0.78544652    -0.15200
C1622       C  0.48687069  0.84014156  0.78059101    -0.30300
H1623       H  0.98386115  0.80277252  0.79213666     0.13900
H1624       H  0.49877659  0.86301368  0.78824219     0.14400
C1625       C  0.13498875  0.89007230  0.95108567    -0.15200
C1626       C  0.12438507  0.87496989  0.98212767    -0.30300
H1627       H  0.15364317  0.91192754  0.95308899     0.13900
H1628       H  0.10600307  0.85295957  0.98085124     0.14400
C1629       C  0.11813393  0.90410488  0.72431796    -0.15200
C1630       C  0.10716170  0.91657557  0.70218638    -0.30300
H1631       H  0.13057192  0.89449282  0.71308416     0.13900
H1632       H  0.09441180  0.92581330  0.71354785     0.14400
O1633       O  0.62568688  0.35391907  0.33774751    -0.84100
O1634       O  0.62497650  0.38853483  0.28285290    -0.81100
C1635       C  0.61613691  0.40221674  0.26331101     0.99400
O1636       O  0.60356118  0.41485819  0.27783029    -0.81200
O1637       O  0.54863059  0.36707286  0.28912344    -0.83800
C1638       C  0.52928992  0.34386341  0.30368223     1.03900
O1639       O  0.53308233  0.33657594  0.33556255    -0.76600
O1640       O  0.57813427  0.32558139  0.33673669    -0.76800
C1641       C  0.60337753  0.32985281  0.32966988     1.03900
O1642       O  0.63646445  0.39967947  0.38936720    -0.84100
O1643       O  0.64177595  0.43663432  0.33516394    -0.81100
C1644       C  0.62859115  0.44958646  0.34744496     0.99400
O1645       O  0.60091415  0.43638518  0.34920264    -0.81200
O1646       O  0.54284494  0.39022730  0.35551345    -0.83800
C1647       C  0.53884475  0.37987674  0.38747018     1.03900
O1648       O  0.55604930  0.37195683  0.40071203    -0.76600
O1649       O  0.59998217  0.35772268  0.40680160    -0.76700
C1650       C  0.62363008  0.38111051  0.41386289     1.03800
Cr1651     Cr  0.62921225  0.39369805  0.33658524     1.93700
Cr1652     Cr  0.57557633  0.40093991  0.31985426     1.93200
Cr1653     Cr  0.56882213  0.35034474  0.36809359     1.39100
O1654       O  0.59113780  0.38158535  0.34167170    -1.21800
O1655       O  0.84415960  0.23707448  0.26284991    -0.84100
O1656       O  0.88312499  0.26722442  0.20986851    -0.81100
C1657       C  0.89658524  0.28868964  0.18913946     0.99400
O1658       O  0.91046515  0.31421426  0.20218975    -0.81200
O1659       O  0.86795917  0.32782548  0.21660198    -0.83800
C1660       C  0.84708328  0.32876436  0.23196810     1.03900
O1661       O  0.84037213  0.32030075  0.26468594    -0.76600
O1662       O  0.82134034  0.26250523  0.26015521    -0.76800
C1663       C  0.82204804  0.23957483  0.25343357     1.03900
O1664       O  0.89141242  0.26750721  0.31830165    -0.84100
O1665       O  0.93136583  0.29448092  0.26262877    -0.81100
C1666       C  0.94737753  0.32126089  0.27055700     0.99400
O1667       O  0.93659804  0.33783369  0.27232434    -0.81200
O1668       O  0.89596017  0.35567168  0.28463083    -0.83800
C1669       C  0.88801415  0.34959544  0.31777299     1.03900
O1670       O  0.87471918  0.32361502  0.32831622    -0.76600
O1671       O  0.84884679  0.26393844  0.32878800    -0.76700
C1672       C  0.87103959  0.26285453  0.34021555     1.03800
Cr1673     Cr  0.88699614  0.26864968  0.26396298     1.93700
Cr1674     Cr  0.90115703  0.33122776  0.24573528     1.93200
Cr1675     Cr  0.84866311  0.29286131  0.29364817     1.39100
O1676       O  0.87907193  0.29756031  0.26761979    -1.21800
O1677       O  0.73968658  0.37962611  0.15461569    -0.84100
O1678       O  0.78331980  0.38898045  0.10534352    -0.81100
C1679       C  0.80844220  0.39891761  0.09154640     0.99400
O1680       O  0.83100142  0.41153538  0.11152068    -0.81200
O1681       O  0.82842680  0.46168750  0.12788985    -0.83800
C1682       C  0.82185678  0.47878868  0.14429737     1.03900
O1683       O  0.80854100  0.47191460  0.17476886    -0.76600
O1684       O  0.75405275  0.42553474  0.16497728    -0.76800
C1685       C  0.73572247  0.40124212  0.15158787     1.03900
O1686       O  0.77131493  0.36580244  0.20976884    -0.84100
O1687       O  0.81072570  0.36996673  0.16065117    -0.81100
C1688       C  0.83439990  0.38286265  0.17919424     0.99400
O1689       O  0.84691541  0.40982788  0.18519098    -0.81200
O1690       O  0.85242799  0.46396047  0.19762805    -0.83800
C1691       C  0.84307530  0.46228240  0.22976405     1.03900
O1692       O  0.81730797  0.44339926  0.23751456    -0.76600
O1693       O  0.76114938  0.39845423  0.23154292    -0.76700
C1694       C  0.76375323  0.37608085  0.23596347     1.03800
Cr1695     Cr  0.77767590  0.37885520  0.15841744     1.93700
Cr1696     Cr  0.83677130  0.43509767  0.15668897     1.93200
Cr1697     Cr  0.78603997  0.43327935  0.20007101     1.39100
O1698       O  0.79992601  0.41569919  0.17175895    -1.21800
O1699       O  0.74997517  0.35327752  0.44462169    -0.84100
O1700       O  0.79201193  0.40806187  0.46609576    -0.81100
C1701       C  0.80805526  0.40350637  0.48819788     0.99400
O1702       O  0.82553050  0.39545595  0.47682831    -0.81200
O1703       O  0.84825147  0.36907839  0.43479011    -0.83800
C1704       C  0.83162920  0.34261817  0.44205985     1.03900
O1705       O  0.80523976  0.32999286  0.43110678    -0.76600
O1706       O  0.75247659  0.32352026  0.40469875    -0.76800
C1707       C  0.74082471  0.32791875  0.43242778     1.03900
O1708       O  0.75473096  0.37289464  0.36889602    -0.84100
O1709       O  0.79892099  0.42616550  0.39033932    -0.81100
C1710       C  0.82383684  0.44523802  0.40165854     0.99400
O1711       O  0.83908649  0.43842653  0.42190740    -0.81200
O1712       O  0.85592591  0.40707196  0.37577899    -0.83800
C1713       C  0.85412614  0.38534423  0.35899452     1.03900
O1714       O  0.83327424  0.36000337  0.36512386    -0.76600
O1715       O  0.78253171  0.35812441  0.34201779    -0.76700
C1716       C  0.76432523  0.36718014  0.34002253     1.03800
Cr1717     Cr  0.77591019  0.38913455  0.41690219     1.93700
Cr1718     Cr  0.83925378  0.40091388  0.42599166     1.93200
Cr1719     Cr  0.79383083  0.34537209  0.38741479     1.39100
O1720       O  0.80288917  0.37849803  0.40987763    -1.21800
O1721       O  0.65202462  0.27379933  0.50341424    -0.84100
O1722       O  0.61644619  0.23697753  0.44924562    -0.81100
C1723       C  0.60667825  0.21458879  0.42915635     0.99400
O1724       O  0.59685072  0.18968820  0.44341509    -0.81200
O1725       O  0.64576018  0.18580343  0.46021057    -0.83800
C1726       C  0.66820642  0.18906408  0.47716568     1.03900
O1727       O  0.67510779  0.20176694  0.50803614    -0.76600
O1728       O  0.68241793  0.25665628  0.49905436    -0.76800
C1729       C  0.67641775  0.27662780  0.49323879     1.03900
O1730       O  0.60889107  0.23706070  0.05870512    -0.84100
O1731       O  0.56817344  0.20193335  0.00716384    -0.81100
C1732       C  0.55709711  0.17798136  0.02390020     0.99400
O1733       O  0.57141287  0.16483301  0.02789920    -0.81200
O1734       O  0.61790582  0.15560518  0.03900245    -0.83800
C1735       C  0.62937464  0.16659957  0.06972457     1.03900
O1736       O  0.64055706  0.19339045  0.07579890    -0.76600
O1737       O  0.65493968  0.25002784  0.06733922    -0.76700
C1738       C  0.63084778  0.24599161  0.08009423     1.03800
Cr1739     Cr  0.61272330  0.23663136  0.50366978     1.93700
Cr1740     Cr  0.61080673  0.17819322  0.48855231     1.93200
Cr1741     Cr  0.65911339  0.22116251  0.03545277     1.39100
O1742       O  0.62520351  0.20813525  0.01204335    -1.21800
O1743       O  0.88535416  0.15076316  0.09460207    -0.84100
O1744       O  0.88801293  0.11882264  0.03721469    -0.81100
C1745       C  0.89855348  0.10695369  0.01711136     0.99400
O1746       O  0.91100864  0.09387747  0.03135157    -0.81200
O1747       O  0.96449804  0.13871576  0.05000423    -0.83800
C1748       C  0.98400665  0.16076973  0.06641500     1.03900
O1749       O  0.97906994  0.16792042  0.09780590    -0.76600
O1750       O  0.93281500  0.17882311  0.09168532    -0.76800
C1751       C  0.90727211  0.17431730  0.08493904     1.03900
O1752       O  0.87354180  0.10332653  0.14302106    -0.84100
O1753       O  0.86950902  0.06896923  0.08511315    -0.81100
C1754       C  0.88213200  0.05573918  0.09802167     0.99400
O1755       O  0.90947002  0.06850397  0.10234588    -0.81200
O1756       O  0.96556519  0.11223180  0.11831671    -0.83800
C1757       C  0.96544533  0.11993560  0.15133952     1.03900
O1758       O  0.95061414  0.13175087  0.16030524    -0.76600
O1759       O  0.90781930  0.14669218  0.16060632    -0.76700
C1760       C  0.88540037  0.12233811  0.16780155     1.03800
Cr1761     Cr  0.88191408  0.11134372  0.09044831     1.93700
Cr1762     Cr  0.93618574  0.10458991  0.07713608     1.93200
Cr1763     Cr  0.94095304  0.15428734  0.12551044     1.39100
O1764       O  0.91977050  0.12334525  0.09781292    -1.21800
O1765       O  0.76550309  0.12209411  0.39933350    -0.84100
O1766       O  0.72061415  0.12871387  0.37500321    -0.81100
C1767       C  0.70695361  0.10790465  0.35247207     0.99400
O1768       O  0.68925664  0.08270610  0.36366642    -0.81200
O1769       O  0.66915271  0.03391191  0.40559280    -0.83800
C1770       C  0.68715738  0.02541364  0.39812386     1.03900
O1771       O  0.71349341  0.04026748  0.40911488    -0.76600
O1772       O  0.76477028  0.08802951  0.43425976    -0.76800
C1773       C  0.77603490  0.10634345  0.40872676     1.03900
O1774       O  0.75602077  0.13392415  0.47451908    -0.84100
O1775       O  0.70940570  0.13851439  0.45043041    -0.81100
C1776       C  0.68448776  0.13163408  0.43765081     0.99400
O1777       O  0.67079827  0.10910741  0.41808532    -0.81200
O1778       O  0.65831008  0.06191171  0.46484868    -0.83800
C1779       C  0.66245813  0.04338510  0.48188490     1.03900
O1780       O  0.68491045  0.04091760  0.47586730    -0.76600
O1781       O  0.73386955  0.09055196  0.49938119    -0.76700
C1782       C  0.74840928  0.11791652  0.50265285     1.03800
Cr1783     Cr  0.73587084  0.12754594  0.42548149     1.93700
Cr1784     Cr  0.67497195  0.07351916  0.41454778     1.93200
Cr1785     Cr  0.72363182  0.06703027  0.45299502     1.39100
O1786       O  0.71167935  0.08949562  0.43125128    -1.21800
O1787       O  0.85074165  0.10976847  0.35264157    -0.84100
O1788       O  0.88717702  0.10539600  0.40365339    -0.81100
C1789       C  0.90318544  0.09673672  0.41869262     0.99400
O1790       O  0.91575535  0.08631984  0.39958237    -0.81200
O1791       O  0.86744609  0.03305476  0.38165921    -0.83800
C1792       C  0.84425817  0.01472456  0.36520643     1.03900
O1793       O  0.83739864  0.02045148  0.33400016    -0.76600
O1794       O  0.82365314  0.06275260  0.34463488    -0.76800
C1795       C  0.82700477  0.08625988  0.35738292     1.03900
O1796       O  0.89741486  0.12808277  0.29869833    -0.84100
O1797       O  0.93490547  0.12897645  0.35032466    -0.81100
C1798       C  0.94787718  0.11790784  0.33280481     0.99400
O1799       O  0.93549948  0.09096723  0.32653065    -0.81200
O1800       O  0.89133617  0.03480895  0.31180331    -0.83800
C1801       C  0.88330340  0.03609441  0.27944330     1.03900
O1802       O  0.87329334  0.05269509  0.27193956    -0.76600
O1803       O  0.85540064  0.09284222  0.27832603    -0.76700
C1804       C  0.87912301  0.11632808  0.27291575     1.03800
Cr1805     Cr  0.89157112  0.11536755  0.35051047     1.93700
Cr1806     Cr  0.90109680  0.06268049  0.35371942     1.93200
Cr1807     Cr  0.84967005  0.05885380  0.30924717     1.39100
O1808       O  0.88065053  0.07898131  0.33784550    -1.21800
O1809       O  0.65979914  0.39815860  0.09426735    -0.84100
O1810       O  0.62501137  0.40439856  0.14538207    -0.81100
C1811       C  0.61041008  0.41437781  0.16095625     0.99400
O1812       O  0.59738800  0.42472871  0.14225148    -0.81200
O1813       O  0.64442813  0.47655814  0.12282285    -0.83800
C1814       C  0.66726207  0.49474266  0.10655129     1.03900
O1815       O  0.67446466  0.48842836  0.07611180    -0.76600
O1816       O  0.68733222  0.44512813  0.08756719    -0.76800
C1817       C  0.68400404  0.42133615  0.09907670     1.03900
O1818       O  0.61194719  0.38055476  0.04078178    -0.84100
O1819       O  0.57608532  0.38086762  0.09384077    -0.81100
C1820       C  0.56225361  0.39153891  0.07723190     0.99400
O1821       O  0.57473243  0.41813706  0.06926166    -0.81200
O1822       O  0.61940829  0.47413944  0.05245707    -0.83800
C1823       C  0.62758134  0.47230769  0.02044248     1.03900
O1824       O  0.63789835  0.45577118  0.01413058    -0.76600
O1825       O  0.65449710  0.41475561  0.02136116    -0.76700
C1826       C  0.63019859  0.39185894  0.01531682     1.03800
Cr1827     Cr  0.61918114  0.39366989  0.09263559     1.93700
Cr1828     Cr  0.61038431  0.44692595  0.09537588     1.93200
Cr1829     Cr  0.66133550  0.44944970  0.05187635     1.39100
O1830       O  0.63037733  0.43003138  0.07994677    -1.21800
O1831       O  0.60412592  0.25513384  0.27813579    -0.84100
O1832       O  0.61491039  0.21390247  0.30502234    -0.81100
C1833       C  0.59540873  0.19512662  0.32610346     0.99400
O1834       O  0.57142192  0.17499887  0.31372982    -0.81200
O1835       O  0.52130552  0.15412615  0.27346912    -0.83800
C1836       C  0.51285182  0.17091511  0.28604302     1.03900
O1837       O  0.52520786  0.19698665  0.27601634    -0.76600
O1838       O  0.56605088  0.24874353  0.24610516    -0.76800
C1839       C  0.58563573  0.26273705  0.26979421     1.03900
O1840       O  0.61408850  0.24240265  0.20103825    -0.84100
O1841       O  0.62744227  0.20242741  0.22960918    -0.81100
C1842       C  0.62155180  0.17748222  0.23992676     0.99400
O1843       O  0.59853737  0.16184262  0.25719501    -0.81200
O1844       O  0.55021171  0.14794109  0.21105764    -0.83800
C1845       C  0.52894253  0.14922610  0.19642673     1.03900
O1846       O  0.52238598  0.16811184  0.20699668    -0.76600
O1847       O  0.56778009  0.21876416  0.18205435    -0.76700
C1848       C  0.59472344  0.23426483  0.17539824     1.03800
Cr1849     Cr  0.61201199  0.22632625  0.25283891     1.93700
Cr1850     Cr  0.56165489  0.16293158  0.26230557     1.93200
Cr1851     Cr  0.54775759  0.20760473  0.22947642     1.39100
O1852       O  0.57430509  0.19931574  0.24806186    -1.21800
O1853       O  0.89783171  0.24010579  0.02299965    -0.84100
O1854       O  0.89663802  0.27884300  0.07031229    -0.81100
C1855       C  0.90315676  0.30260296  0.08558152     0.99400
O1856       O  0.91156682  0.32485389  0.06622692    -0.81200
O1857       O  0.96745811  0.33123706  0.06002948    -0.83800
C1858       C  0.98791825  0.32781190  0.04709486     1.03900
O1859       O  0.98568272  0.31601599  0.01583585    -0.76600
O1860       O  0.94481852  0.25945894  0.01149684    -0.76800
C1861       C  0.92162759  0.23950802  0.02480431     1.03900
O1862       O  0.88724088  0.26859530  0.45580681    -0.84100
O1863       O  0.87730976  0.30326258  0.50183615    -0.81100
C1864       C  0.89001394  0.32783089  0.48606899     0.99400
O1865       O  0.91456876  0.34159302  0.99214167    -0.81200
O1866       O  0.97620387  0.35765119  0.48795973    -0.83800
C1867       C  0.98067817  0.34984738  0.45721998     1.03900
O1868       O  0.96559955  0.32382465  0.44662345    -0.76600
O1869       O  0.92660963  0.26491795  0.44727567    -0.76700
C1870       C  0.90332349  0.26345888  0.43500955     1.03800
Cr1871     Cr  0.89037350  0.27353779  0.01618768     1.93700
Cr1872     Cr  0.94067618  0.33594190  0.02607872     1.93200
Cr1873     Cr  0.95504461  0.29316629  0.48404702     1.39100
O1874       O  0.92746443  0.30038765  0.00780130    -1.21800
O1875       O  0.76778389  0.14875454  0.18547312    -0.84100
O1876       O  0.72538760  0.11188541  0.23353265    -0.81100
C1877       C  0.70035693  0.09810825  0.24797309     0.99400
O1878       O  0.67739062  0.08820498  0.22845213    -0.81200
O1879       O  0.67490129  0.13875285  0.21519244    -0.83800
C1880       C  0.68027722  0.16249676  0.20047204     1.03900
O1881       O  0.69560454  0.17123468  0.17176521    -0.76600
O1882       O  0.75045490  0.17885792  0.18683820    -0.76800
C1883       C  0.76997559  0.17259837  0.19573897     1.03900
O1884       O  0.73645165  0.10747151  0.12600906    -0.84100
O1885       O  0.69941099  0.06833523  0.17529017    -0.81100
C1886       C  0.67589785  0.05819715  0.15664191     0.99400
O1887       O  0.66282614  0.07260128  0.15277316    -0.81200
O1888       O  0.65517384  0.11975800  0.14295137    -0.81400
C1889       C  0.66614513  0.13013850  0.11216516     1.03900
O1890       O  0.69302845  0.13999663  0.10630384    -0.76600
O1891       O  0.75012719  0.15303021  0.11637007    -0.76700
C1892       C  0.74574441  0.12877660  0.10442655     1.03800
Cr1893     Cr  0.73079302  0.11026440  0.17954115     1.93700
Cr1894     Cr  0.67041264  0.10606830  0.18396333     1.93200
Cr1895     Cr  0.72150340  0.15843400  0.14711343     1.39100
O1896       O  0.70755571  0.12504279  0.17047678    -1.21800
C1897       C  0.66589203  0.17875619  0.21363735    -0.15200
C1898       C  0.64069274  0.16506648  0.23212758    -0.30300
H1899       H  0.67365255  0.20068417  0.20376083     0.13900
H1900       H  0.63262456  0.14271821  0.24054062     0.14400
C1901       C  0.53106368  0.37323623  0.06764720    -0.15200
C1902       C  0.51888679  0.34466868  0.06052525    -0.30300
H1903       H  0.51852045  0.38419364  0.06218548     0.13900
H1904       H  0.02820984  0.33090141  0.07140277     0.14400
C1905       C  0.67643757  0.01375968  0.13362283    -0.15200
C1906       C  0.66262568  0.02924976  0.13939643    -0.30300
H1907       H  0.69880257  0.02175923  0.14321560     0.13900
H1908       H  0.64042144  0.02106021  0.12897283     0.14400
C1909       C  0.99001093  0.16386739  0.31011879    -0.15200
C1910       C  0.97791603  0.13569924  0.31969216    -0.30300
H1911       H  0.47508968  0.17030080  0.31404886     0.13900
H1912       H  0.98924272  0.12369893  0.31344029     0.14400
C1913       C  0.80165803  0.10916438  0.38883724    -0.15200
C1914       C  0.80270042  0.08539780  0.37846852    -0.30300
H1915       H  0.81830591  0.13049574  0.37974940     0.13900
H1916       H  0.78465432  0.06412045  0.38550854     0.14400
C1917       C  0.62892650  0.49172494  0.99069786    -0.15200
C1918       C  0.64047817  0.02204546  0.50696197    -0.30300
H1919       H  0.63241661  0.48559832  0.96337328     0.13900
H1920       H  0.63985939  0.02899601  0.53490547     0.14400
C1921       C  0.73670550  0.09845247  0.04932040    -0.15200
C1922       C  0.74924778  0.12511509  0.06457421    -0.30300
H1923       H  0.72672890  0.07967824  0.06726021     0.13900
H1924       H  0.75821268  0.14412678  0.04707796     0.14400
C1925       C  0.71199808  0.11337783  0.31267946    -0.15200
C1926       C  0.69699276  0.09245682  0.28763069    -0.30300
H1927       H  0.72815435  0.13498134  0.30374048     0.13900
H1928       H  0.67954895  0.07138425  0.29633227     0.14400
C1929       C  0.92355435  0.21572708  0.04334165    -0.15200
C1930       C  0.90277600  0.19634097  0.06550427    -0.30300
H1931       H  0.94393629  0.21526369  0.04024977     0.13900
H1932       H  0.88201359  0.19602320  0.06841600     0.14400
C1933       C  0.51083934  0.12906247  0.16699207    -0.15200
C1934       C  0.98434590  0.11794074  0.18007430    -0.30300
H1935       H  0.51981181  0.13440161  0.13945638     0.13900
H1936       H  0.97695900  0.11779175  0.20802003     0.14400
C1937       C  0.88692507  0.12959656  0.23578038    -0.15200
C1938       C  0.87280943  0.11472733  0.20526145    -0.30300
H1939       H  0.90733679  0.14995734  0.23310486     0.13900
H1940       H  0.85308040  0.09378276  0.20818109     0.14400
C1941       C  0.88989023  0.09797963  0.48358878    -0.15200
C1942       C  0.90919714  0.09975963  0.45827925    -0.30300
H1943       H  0.86842452  0.09448044  0.47531218     0.13900
H1944       H  0.92990573  0.10151818  0.46694796     0.14400
C1945       C  0.63431453  0.14905511  0.09635169    -0.15200
C1946       C  0.64862627  0.13527449  0.08524911    -0.30300
H1947       H  0.63343038  0.15344220  0.12541889     0.13900
H1948       H  0.65322550  0.13460432  0.05625217     0.14400
C1949       C  0.60204837  0.24142312  0.13587170    -0.15200
C1950       C  0.62823294  0.24945421  0.12053290    -0.30300
H1951       H  0.58341290  0.23553376  0.11759511     0.13900
H1952       H  0.64702450  0.25457150  0.13812909     0.14400
C1953       C  0.60646409  0.21750136  0.38851109    -0.15200
C1954       C  0.60020588  0.19489220  0.36609170    -0.30300
H1955       H  0.61126466  0.23825994  0.37688945     0.13900
H1956       H  0.59427574  0.17392806  0.37802078     0.14400
C1957       C  0.52700779  0.16388292  0.03835951    -0.15200
C1958       C  0.51002788  0.17632768  0.04265551    -0.30300
H1959       H  0.51891954  0.14174514  0.04765371     0.13900
H1960       H  0.02749491  0.19951516  0.05551819     0.14400
C1961       C  0.67084140  0.14973119  0.44494966    -0.15200
C1962       C  0.68456567  0.17491315  0.46382739    -0.30300
H1963       H  0.64825193  0.14134124  0.43593268     0.13900
H1964       H  0.70670761  0.18277244  0.47425212     0.14400
C1965       C  0.71698541  0.30239451  0.45064531    -0.15200
C1966       C  0.69832701  0.30349823  0.47494266    -0.30300
H1967       H  0.71477616  0.28142630  0.44359944     0.13900
H1968       H  0.69868567  0.32382997  0.48056284     0.14400
C1969       C  0.83609276  0.47598438  0.39211126    -0.15200
C1970       C  0.82358004  0.48581916  0.36797923    -0.30300
H1971       H  0.85752471  0.49089992  0.40378491     0.13900
H1972       H  0.80463869  0.97122392  0.36834022     0.14400
C1973       C  0.87355355  0.34056704  0.46862489    -0.15200
C1974       C  0.84441235  0.32684236  0.46176232    -0.30300
H1975       H  0.88176483  0.35973194  0.96770644     0.13900
H1976       H  0.83054810  0.30430282  0.46942208     0.14400
C1977       C  0.70939763  0.39817365  0.13192772    -0.15200
C1978       C  0.70915056  0.42169959  0.11834594    -0.30300
H1979       H  0.69071174  0.37665112  0.12750602     0.13900
H1980       H  0.72855852  0.44289302  0.12193187     0.14400
C1981       C  0.86047142  0.48522064  0.25644786    -0.15200
C1982       C  0.88077227  0.01481915  0.25187889    -0.30300
H1983       H  0.85571863  0.48035609  0.28544907     0.13900
H1984       H  0.88127897  0.02058070  0.22309655     0.14400
C1985       C  0.75567345  0.37321566  0.30358243    -0.15200
C1986       C  0.76071737  0.36268614  0.27250461    -0.30300
H1987       H  0.74849351  0.38924899  0.30214125     0.13900
H1988       H  0.76723464  0.34615917  0.27452734     0.14400
C1989       C  0.79437495  0.39527346  0.02654587    -0.15200
C1990       C  0.81252321  0.39534661  0.05250585    -0.30300
H1991       H  0.77546588  0.39733532  0.03417587     0.13900
H1992       H  0.83244362  0.39520902  0.04475336     0.14400
C1993       C  0.84327648  0.01479238  0.13143274    -0.15200
C1994       C  0.86545542  0.02492313  0.10746955    -0.30300
H1995       H  0.82482743  0.52196186  0.14280075     0.13900
H1996       H  0.87479725  0.01142541  0.09948680     0.14400
C1997       C  0.79585398  0.19338173  0.21763048    -0.15200
C1998       C  0.79623231  0.21616086  0.23442699    -0.30300
H1999       H  0.81466011  0.19004697  0.21981682     0.13900
H2000       H  0.77717283  0.21909563  0.23191793     0.14400
C2001       C  0.89618176  0.28389013  0.14916588    -0.15200
C2002       C  0.90185098  0.30546129  0.12563110    -0.30300
H2003       H  0.89027093  0.26235590  0.13897764     0.13900
H2004       H  0.90695942  0.32668644  0.13622161     0.14400
C2005       C  0.89651275  0.25788204  0.39521391    -0.15200
C2006       C  0.87317524  0.25802369  0.37991080    -0.30300
H2007       H  0.91307249  0.25763091  0.37766557     0.13900
H2008       H  0.85661353  0.25817462  0.39756562     0.14400
C2009       C  0.88997820  0.37185880  0.34354883    -0.15200
C2010       C  0.87731252  0.38777010  0.33444259    -0.30300
H2011       H  0.89027966  0.36675710  0.37248208     0.13900
H2012       H  0.87496238  0.39169929  0.30563369     0.14400
C2013       C  0.83215728  0.34216611  0.21288718    -0.15200
C2014       C  0.84785358  0.36643742  0.19352436    -0.30300
H2015       H  0.80908493  0.33435583  0.21820653     0.13900
H2016       H  0.87156051  0.37618366  0.19210293     0.14400
C2017       C  0.58547343  0.28761674  0.28832179    -0.15200
C2018       C  0.60657371  0.30643710  0.31148895    -0.30300
H2019       H  0.56656085  0.29034287  0.28277818     0.13900
H2020       H  0.62650680  0.30531901  0.31587157     0.14400
C2021       C  0.51062194  0.37119226  0.40540740    -0.15200
C2022       C  0.00731626  0.36971137  0.43792283    -0.30300
H2023       H  0.49122423  0.36281690  0.38786251     0.13900
H2024       H  0.02765235  0.37982150  0.45379172     0.14400
C2025       C  0.64502118  0.48079443  0.35839184    -0.15200
C2026       C  0.67212426  0.49397402  0.37379187    -0.30300
H2027       H  0.63311884  0.49274507  0.35686515     0.13900
H2028       H  0.69027454  0.98794943  0.37394431     0.14400
C2029       C  0.99368254  0.32078208  0.28748164    -0.15200
C2030       C  0.97943482  0.33480513  0.27669025    -0.30300
H2031       H  0.48922572  0.30296565  0.28830068     0.13900
H2032       H  0.99163480  0.35841515  0.27584270     0.14400
C2033       C  0.63688914  0.38890719  0.45099861    -0.15200
C2034       C  0.62416711  0.37509347  0.48226040    -0.30300
H2035       H  0.65670137  0.40997010  0.45304062     0.13900
H2036       H  0.60468270  0.35378788  0.48140501     0.14400
C2037       C  0.62071731  0.40355185  0.22341046    -0.15200
C2038       C  0.60749432  0.41372688  0.20105073    -0.30300
H2039       H  0.63405917  0.39495072  0.21216472     0.13900
H2040       H  0.59379691  0.42185305  0.21248859     0.14400
O2041       O  0.62662846  0.36035564  0.83291712    -0.84100
O2042       O  0.62392052  0.39435796  0.77844107    -0.81100
C2043       C  0.61451328  0.40807234  0.75985529     0.99400
O2044       O  0.60378558  0.42177359  0.77589172    -0.81200
O2045       O  0.55010676  0.37248192  0.78430160    -0.83800
C2046       C  0.53048161  0.34923202  0.79825991     1.03900
O2047       O  0.53364390  0.34144547  0.83020820    -0.76600
O2048       O  0.57915568  0.33131346  0.83273085    -0.76800
C2049       C  0.60448626  0.33612111  0.82520981     1.03900
O2050       O  0.63689694  0.40533588  0.88559920    -0.84100
O2051       O  0.64014075  0.44190063  0.83156600    -0.81100
C2052       C  0.62626530  0.45346353  0.84578039     0.99400
O2053       O  0.59866776  0.43965810  0.84778279    -0.81200
O2054       O  0.54120745  0.39318627  0.85069280    -0.83800
C2055       C  0.53771193  0.38326245  0.88274395     1.03900
O2056       O  0.55570019  0.37647937  0.89615947    -0.76600
O2057       O  0.60013368  0.36332648  0.90264468    -0.76700
C2058       C  0.62373309  0.38671496  0.91007498     1.03800
Cr2059     Cr  0.62913316  0.39954891  0.83239105     1.93700
Cr2060     Cr  0.57495667  0.40568172  0.81646438     1.93200
Cr2061     Cr  0.56903624  0.35537430  0.86374774     1.39100
O2062       O  0.59102959  0.38673320  0.83782562    -1.21800
O2063       O  0.85922767  0.23520213  0.76018292    -0.84100
O2064       O  0.88989786  0.26886110  0.70261955    -0.81100
C2065       C  0.90059633  0.29066308  0.68211933     0.99400
O2066       O  0.91321128  0.31620934  0.69549240    -0.81200
O2067       O  0.86732275  0.32331118  0.71493592    -0.83800
C2068       C  0.84567016  0.32099667  0.73228924     1.03900
O2069       O  0.83987768  0.30967222  0.76394927    -0.76600
O2070       O  0.83001401  0.25358582  0.75782888    -0.76800
C2071       C  0.83490359  0.23301750  0.75090322     1.03900
O2072       O  0.90841786  0.27224334  0.80774809    -0.84100
O2073       O  0.94094134  0.30158745  0.74874551    -0.81100
C2074       C  0.95425604  0.32751654  0.76053808     0.99400
O2075       O  0.94085678  0.34147948  0.76517750    -0.81200
O2076       O  0.89553919  0.35225267  0.78214530    -0.83800
C2077       C  0.88833655  0.34500060  0.81530581     1.03900
O2078       O  0.87837330  0.31903356  0.82515944    -0.76600
O2079       O  0.86454099  0.26194788  0.82573028    -0.76700
C2080       C  0.88970595  0.26492032  0.83271720     1.03800
Cr2081     Cr  0.89867292  0.27132303  0.75539858     1.93700
Cr2082     Cr  0.90314755  0.33072682  0.74115049     1.93200
Cr2083     Cr  0.85521657  0.28642654  0.79106842     1.39100
O2084       O  0.88578230  0.29632703  0.76261328    -1.21800
O2085       O  0.75198458  0.38645669  0.62807183    -0.84100
O2086       O  0.79735325  0.37647827  0.61267722    -0.81100
C2087       C  0.81151882  0.39752077  0.59141025     0.99400
O2088       O  0.82604196  0.42298521  0.60373526    -0.81200
O2089       O  0.84158240  0.47057461  0.64676895    -0.83800
C2090       C  0.82297029  0.47901539  0.64227736     1.03900
O2091       O  0.79657918  0.46299646  0.65200690    -0.76600
O2092       O  0.74601591  0.41153254  0.67168676    -0.76800
C2093       C  0.73903302  0.39932072  0.64039403     1.03900
O2094       O  0.75286232  0.36880774  0.70423852    -0.84100
O2095       O  0.80129294  0.36509833  0.68860773    -0.81100
C2096       C  0.82760200  0.37338878  0.68093655     0.99400
O2097       O  0.84240137  0.39608195  0.66203395    -0.81200
O2098       O  0.85330366  0.44327851  0.70675854    -0.83800
C2099       C  0.84782844  0.46103461  0.72320574     1.03900
O2100       O  0.82417895  0.46126169  0.71744569    -0.76600
O2101       O  0.77802380  0.40871940  0.73609241    -0.76700
C2102       C  0.76260528  0.38142399  0.73486138     1.03800
Cr2103     Cr  0.77740234  0.37700794  0.65912614     1.93700
Cr2104     Cr  0.83798604  0.43164640  0.65576345     1.93200
Cr2105     Cr  0.78680333  0.43429164  0.69269672     1.39100
O2106       O  0.80089675  0.41443812  0.66933531    -1.21800
O2107       O  0.74579975  0.34521517  0.93991576    -0.84100
O2108       O  0.78543600  0.39908752  0.96406809    -0.81100
C2109       C  0.80007581  0.39376725  0.98733839     0.99400
O2110       O  0.81930439  0.38749150  0.97722315    -0.81200
O2111       O  0.84413884  0.36238480  0.93564842    -0.83800
C2112       C  0.82778913  0.33581731  0.94201378     1.03900
O2113       O  0.80195426  0.32266310  0.92871579    -0.76600
O2114       O  0.74960185  0.31652172  0.89952129    -0.76800
C2115       C  0.73730604  0.32016683  0.92711595     1.03900
O2116       O  0.75276757  0.36649158  0.86554590    -0.84100
O2117       O  0.79607596  0.41970235  0.88969770    -0.81100
C2118       C  0.82069349  0.43852181  0.90238334     0.99400
O2119       O  0.83519722  0.43129938  0.92324062    -0.81200
O2120       O  0.85412097  0.40097033  0.87735771    -0.83800
C2121       C  0.85264584  0.37959146  0.85974239     1.03900
O2122       O  0.83160838  0.35419809  0.86459424    -0.76600
O2123       O  0.78194743  0.35364477  0.83860083    -0.76700
C2124       C  0.76443496  0.36361800  0.83680469     1.03800
Cr2125     Cr  0.77213386  0.38175132  0.91417164     1.93700
Cr2126     Cr  0.83526176  0.39391973  0.92683034     1.93200
Cr2127     Cr  0.79156138  0.33912189  0.88461121     1.39100
O2128       O  0.79960890  0.37161549  0.90838423    -1.21800
O2129       O  0.65050125  0.26811188  0.00027783    -0.84100
O2130       O  0.61196165  0.22739746  0.94973511    -0.81100
C2131       C  0.59800294  0.20277580  0.93409900     0.99400
O2132       O  0.58834808  0.17968501  0.95258593    -0.81200
O2133       O  0.63748300  0.17369440  0.96704170    -0.83800
C2134       C  0.66137021  0.17859482  0.98206109     1.03900
O2135       O  0.67090227  0.19461692  0.01038163    -0.76600
O2136       O  0.67964007  0.24957346  0.99612073    -0.76800
C2137       C  0.67415806  0.26977692  0.98944490     1.03900
O2138       O  0.60800765  0.23776381  0.55795807    -0.84100
O2139       O  0.57020170  0.20470958  0.50256138    -0.81100
C2140       C  0.55927501  0.17890850  0.51425733     0.99400
O2141       O  0.57433352  0.16641271  0.51535185    -0.81200
O2142       O  0.62192687  0.15967601  0.52933157    -0.83800
C2143       C  0.63045291  0.16826220  0.56199188     1.03900
O2144       O  0.64034469  0.19446960  0.57109044    -0.76600
O2145       O  0.65406736  0.25174537  0.56866633    -0.76700
C2146       C  0.62943918  0.24707783  0.58015416     1.03800
Cr2147     Cr  0.61102588  0.23205119  0.00444146     1.93700
Cr2148     Cr  0.60511033  0.17139445  0.99760419     1.93200
Cr2149     Cr  0.66063778  0.22549475  0.53466176     1.39100
O2150       O  0.62796596  0.21334472  0.50871681    -1.21800
O2151       O  0.88621835  0.14525184  0.57427067    -0.84100
O2152       O  0.87808896  0.09437561  0.54722994    -0.81100
C2153       C  0.89757974  0.10014578  0.52301200     0.99400
O2154       O  0.92364578  0.10745621  0.53200019    -0.81200
O2155       O  0.97571836  0.13429648  0.57030694    -0.83800
C2156       C  0.98401949  0.16022498  0.56167086     1.03900
O2157       O  0.96969361  0.17201088  0.57274484    -0.76600
O2158       O  0.92574538  0.17908565  0.60194887    -0.76800
C2159       C  0.90422115  0.17155647  0.58018299     1.03900
O2160       O  0.88102306  0.12452818  0.64980406    -0.84100
O2161       O  0.87336105  0.07327554  0.62318854    -0.81100
C2162       C  0.87904539  0.05513854  0.60851826     0.99400
O2163       O  0.89927276  0.06350045  0.58541634    -0.81200
O2164       O  0.94862761  0.09663760  0.63017605    -0.83800
C2165       C  0.96819904  0.11858718  0.64721208     1.03900
O2166       O  0.97298769  0.14404816  0.64003567    -0.76600
O2167       O  0.92735670  0.14878983  0.66747932    -0.76700
C2168       C  0.90042930  0.13593923  0.67492117     1.03800
Cr2169     Cr  0.88285800  0.11050741  0.59888407     1.93700
Cr2170     Cr  0.93548472  0.10213091  0.58113439     1.93200
Cr2171     Cr  0.94671555  0.15822770  0.61903244     1.39100
O2172       O  0.92144526  0.12374351  0.60001681    -1.21800
O2173       O  0.75837203  0.10619904  0.90833127    -0.84100
O2174       O  0.71964979  0.12127484  0.88193557    -0.81100
C2175       C  0.70490120  0.10385068  0.85616659     0.99400
O2176       O  0.68496059  0.07827686  0.86290856    -0.81200
O2177       O  0.66187269  0.02511460  0.89504432    -0.83800
C2178       C  0.67979280  0.01609904  0.88919972     1.03900
O2179       O  0.70528819  0.02943428  0.90301956    -0.76600
O2180       O  0.75339587  0.07106021  0.94394082    -0.76800
C2181       C  0.76748746  0.08972853  0.91992277     1.03900
O2182       O  0.74270072  0.11193802  0.98512860    -0.84100
O2183       O  0.70215622  0.12571475  0.95607990    -0.81100
C2184       C  0.67765496  0.12017374  0.94257951     0.99400
O2185       O  0.66396686  0.09882721  0.92114183    -0.81200
O2186       O  0.64632311  0.04648945  0.95842184    -0.83800
C2187       C  0.64745914  0.02502231  0.97179524     1.03900
O2188       O  0.66867627  0.02095970  0.96443407    -0.76600
O2189       O  0.71437498  0.06608381  0.00049587    -0.76700
C2190       C  0.73130497  0.09218088  0.00940969     1.03800
Cr2191     Cr  0.72867921  0.11320740  0.93307599     1.93700
Cr2192     Cr  0.66711465  0.06336132  0.91119740     1.93200
Cr2193     Cr  0.70998862  0.04930629  0.95122174     1.39100
O2194       O  0.70197220  0.07559463  0.93204001    -1.21800
O2195       O  0.84795112  0.10118693  0.86885909    -0.84100
O2196       O  0.90098042  0.11216047  0.89462422    -0.81100
C2197       C  0.90060457  0.09218103  0.91441627     0.99400
O2198       O  0.89571563  0.06837350  0.90091394    -0.81200
O2199       O  0.86328981  0.02015797  0.86065724    -0.83800
C2200       C  0.83679882  0.01170887  0.86868502     1.03900
O2201       O  0.82462192  0.02595905  0.85801364    -0.76600
O2202       O  0.81891358  0.07163253  0.82665394    -0.76800
C2203       C  0.82295148  0.08747304  0.85433617     1.03900
O2204       O  0.87131376  0.11575228  0.79234554    -0.84100
O2205       O  0.92378984  0.12618582  0.81992422    -0.81100
C2206       C  0.94242319  0.11840578  0.82671264     0.99400
O2207       O  0.93531563  0.09487228  0.84274938    -0.81200
O2208       O  0.90028846  0.04798902  0.79844288    -0.83800
C2209       C  0.87767056  0.02711739  0.78465918     1.03900
O2210       O  0.85257935  0.02308204  0.79288052    -0.76600
O2211       O  0.85343618  0.07205873  0.76729712    -0.76700
C2212       C  0.86377041  0.09906019  0.76413003     1.03800
Cr2213     Cr  0.88499610  0.11089467  0.84328106     1.93700
Cr2214     Cr  0.89687075  0.05923666  0.84932877     1.93200
Cr2215     Cr  0.84015463  0.05027152  0.81319728     1.39100
O2216       O  0.87427684  0.07383053  0.83534788    -1.21800
O2217       O  0.64934141  0.39963853  0.62314825    -0.84100
O2218       O  0.59972708  0.39746677  0.64284571    -0.81100
C2219       C  0.60568696  0.42095751  0.65915959     0.99400
O2220       O  0.61212152  0.44381580  0.64182588    -0.81200
O2221       O  0.64467866  0.48493316  0.59247272    -0.83800
C2222       C  0.66895369  0.49061141  0.60664979     1.03900
O2223       O  0.67980991  0.47444867  0.59976258    -0.76600
O2224       O  0.68085111  0.42345373  0.58041593    -0.76800
C2225       C  0.67463441  0.41015062  0.61058626     1.03900
O2226       O  0.62525507  0.37834678  0.54808511    -0.84100
O2227       O  0.57591163  0.37758009  0.57013071    -0.81100
C2228       C  0.55882300  0.38716473  0.57705923     0.99400
O2229       O  0.56847398  0.41279285  0.58818418    -0.81200
O2230       O  0.60529155  0.45241925  0.53502259    -0.83800
C2231       C  0.62866492  0.46973025  0.51875568     1.03900
O2232       O  0.65303323  0.47227116  0.52892846    -0.76600
O2233       O  0.64716521  0.41893315  0.51626047    -0.76700
C2234       C  0.63313174  0.39152185  0.51753934     1.03800
Cr2235     Cr  0.61383540  0.39106882  0.59470987     1.93700
Cr2236     Cr  0.60891016  0.44668652  0.58846268     1.93200
Cr2237     Cr  0.66271334  0.44583481  0.55815083     1.39100
O2238       O  0.62816068  0.42746932  0.58021431    -1.21800
O2239       O  0.60659701  0.26295818  0.77418564    -0.84100
O2240       O  0.62089413  0.22485368  0.80372416    -0.81100
C2241       C  0.60223262  0.20966359  0.82816070     0.99400
O2242       O  0.57748287  0.18847548  0.81912502    -0.81200
O2243       O  0.52591747  0.15829358  0.77953428    -0.83800
C2244       C  0.51388475  0.17289873  0.78819208     1.03900
O2245       O  0.52548485  0.19905657  0.77868767    -0.76600
O2246       O  0.56425297  0.25144962  0.74838027    -0.76800
C2247       C  0.58591416  0.26803435  0.76829240     1.03900
O2248       O  0.61371697  0.24687950  0.69899684    -0.84100
O2249       O  0.62868436  0.20885800  0.72767745    -0.81100
C2250       C  0.62599825  0.18635803  0.74262498     0.99400
O2251       O  0.60651072  0.17359715  0.76614709    -0.81200
O2252       O  0.55636776  0.15270324  0.71945975    -0.83800
C2253       C  0.53498935  0.15251804  0.70251042     1.03900
O2254       O  0.52621326  0.17018404  0.71111901    -0.76600
O2255       O  0.56685806  0.22186938  0.68354238    -0.76700
C2256       C  0.59335430  0.23733383  0.67485045     1.03800
Cr2257     Cr  0.61443102  0.23363623  0.75102320     1.93700
Cr2258     Cr  0.56754890  0.17116790  0.76938474     1.93200
Cr2259     Cr  0.54827037  0.21050603  0.73208573     1.39100
O2260       O  0.57699576  0.20557682  0.75061804    -1.21800
O2261       O  0.89976242  0.24123109  0.51845338    -0.84100
O2262       O  0.89550403  0.27988685  0.56400303    -0.81100
C2263       C  0.90267877  0.30388194  0.57929863     0.99400
O2264       O  0.91245453  0.32653391  0.56043301    -0.81200
O2265       O  0.96916040  0.33444557  0.55822360    -0.83800
C2266       C  0.99016318  0.33120925  0.54692597     1.03900
O2267       O  0.98874325  0.31912039  0.51640038    -0.76600
O2268       O  0.94779597  0.26321403  0.52044393    -0.76800
C2269       C  0.92339841  0.24220787  0.52891283     1.03900
O2270       O  0.88048571  0.26550202  0.96345454    -0.84100
O2271       O  0.87502526  0.30173134  0.01008561    -0.81100
C2272       C  0.88693502  0.32575770  0.99298401     0.99400
O2273       O  0.91760605  0.34292615  0.48591037    -0.81200
O2274       O  0.97475380  0.35760181  0.99257512    -0.83800
C2275       C  0.97912788  0.35114267  0.96096220     1.03900
O2276       O  0.96217542  0.32624629  0.94826860    -0.76600
O2277       O  0.92148326  0.26885288  0.94307902    -0.76700
C2278       C  0.89544602  0.26380748  0.93768156     1.03800
Cr2279     Cr  0.89253504  0.27503314  0.50973124     1.93700
Cr2280     Cr  0.94259379  0.33755738  0.52180702     1.93200
Cr2281     Cr  0.95140561  0.29292260  0.98162384     1.39100
O2282       O  0.93003347  0.30176057  0.50513309    -1.21800
O2283       O  0.76622732  0.15731128  0.69066768    -0.84100
O2284       O  0.72287373  0.12127440  0.73809051    -0.81100
C2285       C  0.69763646  0.10531866  0.75095119     0.99400
O2286       O  0.67561161  0.09405397  0.72976083    -0.81200
O2287       O  0.67276194  0.14330481  0.71011414    -0.83800
C2288       C  0.67770980  0.16605731  0.69308113     1.03900
O2289       O  0.69176025  0.17274673  0.66304692    -0.76600
O2290       O  0.74807526  0.18547365  0.67570363    -0.76800
C2291       C  0.76737736  0.18179570  0.69155970     1.03900
O2292       O  0.73992306  0.11089596  0.63458575    -0.84100
O2293       O  0.70100478  0.07471416  0.68280521    -0.81100
C2294       C  0.67762413  0.06224853  0.66362681     0.99400
O2295       O  0.66328127  0.07489753  0.65573450    -0.81200
O2296       O  0.65232300  0.12015430  0.63945849    -0.81400
C2297       C  0.66263720  0.12798698  0.60771284     1.03900
O2298       O  0.68900697  0.13573103  0.60188641    -0.76600
O2299       O  0.74635432  0.15161201  0.61103215    -0.76700
C2300       C  0.74608531  0.12764497  0.60757970     1.03800
Cr2301     Cr  0.73093458  0.11723086  0.68543128     1.93700
Cr2302     Cr  0.66895062  0.10946674  0.68273950     1.93200
Cr2303     Cr  0.71813819  0.15915430  0.64021336     1.39100
O2304       O  0.70629603  0.12889070  0.66965426    -1.21800
C2305       C  0.66446196  0.18347879  0.70606543    -0.15200
C2306       C  0.64470731  0.17376145  0.73321180    -0.30300
H2307       H  0.66856013  0.20269523  0.69075285     0.13900
H2308       H  0.64031637  0.15413761  0.74777879     0.14400
C2309       C  0.52719901  0.36850034  0.57163061    -0.15200
C2310       C  0.51554512  0.33987336  0.56635353    -0.30300
H2311       H  0.51367865  0.37871556  0.56871119     0.13900
H2312       H  0.03254381  0.33531652  0.56156121     0.14400
C2313       C  0.68108410  0.02328054  0.63106456    -0.15200
C2314       C  0.66577764  0.03210078  0.65183084    -0.30300
H2315       H  0.70342473  0.03852754  0.62309778     0.13900
H2316       H  0.64252054  0.01766534  0.65631997     0.14400
C2317       C  0.98455532  0.16301001  0.80163761    -0.15200
C2318       C  0.97298528  0.13591075  0.81490698    -0.30300
H2319       H  0.47458298  0.17021646  0.81504430     0.13900
H2320       H  0.98622633  0.12530874  0.81585019     0.14400
C2321       C  0.79467660  0.09187399  0.90543192    -0.15200
C2322       C  0.79809173  0.08989486  0.86915671    -0.30300
H2323       H  0.81029953  0.09131481  0.92475292     0.13900
H2324       H  0.78070583  0.08706817  0.85024089     0.14400
C2325       C  0.62934027  0.49041465  0.49122973    -0.15200
C2326       C  0.62477847  0.00398649  0.99653869    -0.30300
H2327       H  0.62627238  0.48382839  0.46249119     0.13900
H2328       H  0.62137280  0.01235395  0.02223735     0.14400
C2329       C  0.75483667  0.13207140  0.53970650    -0.15200
C2330       C  0.75025325  0.11716056  0.57121845    -0.30300
H2331       H  0.76025327  0.15468492  0.54101196     0.13900
H2332       H  0.74534503  0.09469619  0.56970190     0.14400
C2333       C  0.71123054  0.11355034  0.81748217    -0.15200
C2334       C  0.69283841  0.09764581  0.79019345    -0.30300
H2335       H  0.73096466  0.13381201  0.81137578     0.13900
H2336       H  0.67241399  0.07823886  0.79690606     0.14400
C2337       C  0.92395265  0.21925131  0.55141898    -0.15200
C2338       C  0.90044581  0.19384597  0.56007184    -0.30300
H2339       H  0.94546957  0.22343828  0.56071383     0.13900
H2340       H  0.87891883  0.18839455  0.54937492     0.14400
C2341       C  0.51952572  0.13249236  0.67170211    -0.15200
C2342       C  0.98624473  0.11562788  0.67599863    -0.30300
H2343       H  0.52987817  0.13938282  0.64505809     0.13900
H2344       H  0.97717986  0.11231010  0.70349091     0.14400
C2345       C  0.86697575  0.11024454  0.72613998    -0.15200
C2346       C  0.89209428  0.13286963  0.71434390    -0.30300
H2347       H  0.85129767  0.09561706  0.70581489     0.13900
H2348       H  0.90911328  0.14582210  0.73438535     0.14400
C2349       C  0.89544515  0.10777654  0.97672813    -0.15200
C2350       C  0.90664829  0.09581735  0.95416556    -0.30300
H2351       H  0.88310626  0.11754989  0.96545293     0.13900
H2352       H  0.91773122  0.08487019  0.96578490     0.14400
C2353       C  0.63265366  0.14877432  0.58877613    -0.15200
C2354       C  0.64597230  0.13356712  0.57942088    -0.30300
H2355       H  0.63079660  0.15290731  0.61767182     0.13900
H2356       H  0.65135151  0.13267684  0.55079717     0.14400
C2357       C  0.59955964  0.24254638  0.63490596    -0.15200
C2358       C  0.62599061  0.25108762  0.62003248    -0.30300
H2359       H  0.58064245  0.23507519  0.61667021     0.13900
H2360       H  0.64491306  0.25767998  0.63799376     0.14400
C2361       C  0.59111435  0.19955723  0.89423079    -0.15200
C2362       C  0.60965301  0.21645166  0.86793548    -0.30300
H2363       H  0.57084670  0.18031653  0.88606580     0.13900
H2364       H  0.63070826  0.23485644  0.87567667     0.14400
C2365       C  0.52874815  0.16220844  0.52736576    -0.15200
C2366       C  0.51145207  0.17358588  0.53539897    -0.30300
H2367       H  0.52115229  0.13957811  0.53385132     0.13900
H2368       H  0.01997008  0.19973287  0.53548262     0.14400
C2369       C  0.66384395  0.13816261  0.95113628    -0.15200
C2370       C  0.67742943  0.16363016  0.96943288    -0.30300
H2371       H  0.64118580  0.12967713  0.94238225     0.13900
H2372       H  0.69983155  0.17189608  0.97909462     0.14400
C2373       C  0.71346459  0.29438268  0.94475612    -0.15200
C2374       C  0.69583892  0.29596313  0.97013328    -0.30300
H2375       H  0.71075195  0.27331219  0.93716320     0.13900
H2376       H  0.69697259  0.31658358  0.97631311     0.14400
C2377       C  0.83370440  0.46943166  0.89339147    -0.15200
C2378       C  0.82163289  0.47946051  0.86916269    -0.30300
H2379       H  0.85518733  0.48410030  0.90514182     0.13900
H2380       H  0.79649462  0.97381197  0.89090824     0.14400
C2381       C  0.86931613  0.33686382  0.97468925    -0.15200
C2382       C  0.84084829  0.32111284  0.96376964    -0.30300
H2383       H  0.88701087  0.36289913  0.45977091     0.13900
H2384       H  0.82813281  0.29804332  0.96943472     0.14400
C2385       C  0.71602464  0.40047244  0.61781852    -0.15200
C2386       C  0.69692433  0.40746892  0.63252903    -0.30300
H2387       H  0.71486069  0.39567033  0.58858680     0.13900
H2388       H  0.69664281  0.41005694  0.66214882     0.14400
C2389       C  0.86962497  0.48455200  0.74628505    -0.15200
C2390       C  0.87917089  0.00538869  0.76137418    -0.30300
H2391       H  0.87407637  0.47923296  0.77354912     0.13900
H2392       H  0.88923561  0.01209596  0.73455824     0.14400
C2393       C  0.75974266  0.37544261  0.80213375    -0.15200
C2394       C  0.75835559  0.36413369  0.76864028    -0.30300
H2395       H  0.75930932  0.39570890  0.80434486     0.13900
H2396       H  0.75684280  0.34299019  0.76602012     0.14400
C2397       C  0.80709405  0.40844941  0.52758514    -0.15200
C2398       C  0.81151414  0.39213194  0.55209703    -0.30300
H2399       H  0.80196162  0.42500297  0.53666450     0.13900
H2400       H  0.81374057  0.37371317  0.54314191     0.14400
C2401       C  0.84063152  0.01218551  0.64182248    -0.15200
C2402       C  0.86263059  0.02389355  0.61748842    -0.30300
H2403       H  0.81972917  0.51887101  0.63081596     0.13900
H2404       H  0.86997921  0.01014377  0.60443405     0.14400
C2405       C  0.79111406  0.20708704  0.71130883    -0.15200
C2406       C  0.81236844  0.20646866  0.73164338    -0.30300
H2407       H  0.79053074  0.22729778  0.70959896     0.13900
H2408       H  0.81396178  0.18679707  0.73284994     0.14400
C2409       C  0.89882464  0.28600162  0.64222414    -0.15200
C2410       C  0.90107733  0.30659768  0.61915581    -0.30300
H2411       H  0.89525860  0.26525770  0.63170827     0.13900
H2412       H  0.90437932  0.32718081  0.62995784     0.14400
C2413       C  0.88242088  0.25777143  0.90014064    -0.15200
C2414       C  0.89855478  0.26113950  0.87016388    -0.30300
H2415       H  0.86041922  0.25464367  0.89689467     0.13900
H2416       H  0.92081436  0.26499211  0.87357265     0.14400
C2417       C  0.88799230  0.36547090  0.84268512    -0.15200
C2418       C  0.87591594  0.38221222  0.83485262    -0.30300
H2419       H  0.88746990  0.35900233  0.87118922     0.13900
H2420       H  0.87441453  0.38768398  0.80645187     0.14400
C2421       C  0.82887351  0.33426527  0.71710494    -0.15200
C2422       C  0.84147451  0.35644468  0.69319341    -0.30300
H2423       H  0.80748502  0.32806665  0.72846063     0.13900
H2424       H  0.86357097  0.36353686  0.68362761     0.14400
C2425       C  0.58581783  0.29313267  0.78572719    -0.15200
C2426       C  0.60784489  0.31304146  0.80683512    -0.30300
H2427       H  0.56611807  0.29479499  0.78174988     0.13900
H2428       H  0.62832890  0.31275049  0.80978062     0.14400
C2429       C  0.50962243  0.37400790  0.90091611    -0.15200
C2430       C  0.00725902  0.37015659  0.94299916    -0.30300
H2431       H  0.48993194  0.36542714  0.88388977     0.13900
H2432       H  0.02700986  0.37894721  0.95993937     0.14400
C2433       C  0.64157056  0.48337809  0.85981047    -0.15200
C2434       C  0.67079725  0.49937453  0.86505279    -0.30300
H2435       H  0.62745245  0.49185144  0.86860495     0.13900
H2436       H  0.68376721  0.97959505  0.86442606     0.14400
C2437       C  0.99860190  0.32812793  0.78434251    -0.15200
C2438       C  0.98577750  0.34212187  0.76896757    -0.30300
H2439       H  0.48954768  0.30987663  0.78106608     0.13900
H2440       H  0.99771246  0.36571272  0.76779936     0.14400
C2441       C  0.63626872  0.39377003  0.94787921    -0.15200
C2442       C  0.62181730  0.37894405  0.97784424    -0.30300
H2443       H  0.65655248  0.41421549  0.95151470     0.13900
H2444       H  0.60095940  0.35905784  0.97449094     0.14400
C2445       C  0.61536006  0.40759176  0.71960947    -0.15200
C2446       C  0.60532063  0.42196652  0.69923583    -0.30300
H2447       H  0.62357060  0.39459574  0.70642008     0.13900
H2448       H  0.59856796  0.43624992  0.71211259     0.14400
O2449       O  0.62667922  0.85613651  0.34071342    -0.84100
O2450       O  0.62402503  0.88998280  0.28608665    -0.81100
C2451       C  0.61388246  0.90302010  0.26750095     0.99400
O2452       O  0.60415197  0.91769241  0.28348614    -0.81200
O2453       O  0.54886840  0.87072912  0.29580409    -0.83800
C2454       C  0.52968530  0.84748741  0.31052782     1.03900
O2455       O  0.53419573  0.83994879  0.34196398    -0.76600
O2456       O  0.57905099  0.82824963  0.34073959    -0.76800
C2457       C  0.60409612  0.83211121  0.33326918     1.03900
O2458       O  0.63966046  0.90259434  0.39218889    -0.84100
O2459       O  0.64380700  0.93925193  0.33849133    -0.81100
C2460       C  0.63109401  0.95170329  0.35360076     0.99400
O2461       O  0.60349806  0.93868694  0.35589577    -0.81200
O2462       O  0.54570979  0.89426567  0.36305506    -0.83800
C2463       C  0.54259768  0.88433972  0.39507464     1.03900
O2464       O  0.55925367  0.87529549  0.40705829    -0.76600
O2465       O  0.60300765  0.86086717  0.41014326    -0.76700
C2466       C  0.62677974  0.88428824  0.41694196     1.03800
Cr2467     Cr  0.63065456  0.89609289  0.33964036     1.93700
Cr2468     Cr  0.57715604  0.90418773  0.32619714     1.93200
Cr2469     Cr  0.57080064  0.85336477  0.37311640     1.39100
O2470       O  0.59276287  0.88440675  0.34649914    -1.21800
O2471       O  0.85224491  0.73711879  0.26341651    -0.84100
O2472       O  0.88991018  0.76949598  0.20991814    -0.81100
C2473       C  0.90169477  0.79113517  0.18904739     0.99400
O2474       O  0.91420491  0.81683516  0.20194396    -0.81200
O2475       O  0.86955326  0.82813227  0.21301381    -0.83800
C2476       C  0.84645632  0.82590718  0.22626594     1.03900
O2477       O  0.83763212  0.81450751  0.25736194    -0.76600
O2478       O  0.82594410  0.75794688  0.25204540    -0.76800
C2479       C  0.82997621  0.73646107  0.24863161     1.03900
O2480       O  0.89652993  0.77249850  0.31849745    -0.84100
O2481       O  0.93645145  0.80008121  0.26275397    -0.81100
C2482       C  0.95042799  0.82653726  0.27230748     0.99400
O2483       O  0.93772157  0.84140479  0.27367113    -0.81200
O2484       O  0.89326104  0.85459178  0.28311978    -0.83800
C2485       C  0.88257429  0.84704791  0.31501740     1.03900
O2486       O  0.86918288  0.82075055  0.32426202    -0.76600
O2487       O  0.85114695  0.76275796  0.32478779    -0.76700
C2488       C  0.87461687  0.76565319  0.33872962     1.03800
Cr2489     Cr  0.89304401  0.77177194  0.26397270     1.93700
Cr2490     Cr  0.90227986  0.83256561  0.24466288     1.93200
Cr2491     Cr  0.84831141  0.78942786  0.28788400     1.39100
O2492       O  0.88138590  0.79815585  0.26540690    -1.21800
O2493       O  0.74377245  0.89217534  0.15866343    -0.84100
O2494       O  0.78499372  0.89609991  0.10940404    -0.81100
C2495       C  0.80950248  0.90507573  0.09432802     0.99400
O2496       O  0.83251322  0.91485799  0.11359215    -0.81200
O2497       O  0.83660355  0.96722170  0.13162658    -0.83800
C2498       C  0.83219554  0.98581665  0.14777436     1.03900
O2499       O  0.82029835  0.98060242  0.17919090    -0.76600
O2500       O  0.76440921  0.93912898  0.16815677    -0.76800
C2501       C  0.74385211  0.91608411  0.15502004     1.03900
O2502       O  0.77141673  0.87255793  0.21344615    -0.84100
O2503       O  0.80885694  0.87201901  0.16358152    -0.81100
C2504       C  0.83355281  0.88306883  0.18018075     0.99400
O2505       O  0.84812107  0.90994441  0.18682592    -0.81200
O2506       O  0.85942810  0.96606534  0.20186483    -0.83800
C2507       C  0.85013897  0.96473798  0.23408046     1.03900
O2508       O  0.82373921  0.94767497  0.24133013    -0.76600
O2509       O  0.76548744  0.90819083  0.23421859    -0.76700
C2510       C  0.76460031  0.88402813  0.23899570     1.03800
Cr2511     Cr  0.77899313  0.88582162  0.16212960     1.93700
Cr2512     Cr  0.84133056  0.93812571  0.15978536     1.93200
Cr2513     Cr  0.79406066  0.94219076  0.20377070     1.39100
O2514       O  0.80464632  0.92191311  0.17536485    -1.21800
O2515       O  0.73515676  0.84383762  0.42061449    -0.84100
O2516       O  0.77058310  0.87932846  0.47375709    -0.81100
C2517       C  0.79334381  0.89288175  0.49295150     0.99400
O2518       O  0.81834281  0.90613652  0.47818140    -0.81200
O2519       O  0.82799103  0.86166446  0.45848067    -0.83800
C2520       C  0.82747396  0.84098352  0.44079435     1.03900
O2521       O  0.81586149  0.83434684  0.40890785    -0.76600
O2522       O  0.75787192  0.81854980  0.41512567    -0.76800
C2523       C  0.73625308  0.82065131  0.42590964     1.03900
O2524       O  0.76542255  0.89223210  0.36868003    -0.84100
O2525       O  0.79757617  0.92858505  0.42376590    -0.81100
C2526       C  0.82368698  0.94305520  0.41205467     0.99400
O2527       O  0.83923703  0.93132757  0.40752363    -0.81200
O2528       O  0.85357937  0.88907979  0.39077008    -0.83800
C2529       C  0.84591835  0.88200667  0.35753984     1.03900
O2530       O  0.81951203  0.87137026  0.34802399    -0.76600
O2531       O  0.76055922  0.85096307  0.34918151    -0.76700
C2532       C  0.76010228  0.87433453  0.34311225     1.03800
Cr2533     Cr  0.76914573  0.88522039  0.42090102     1.93700
Cr2534     Cr  0.83196908  0.89564125  0.43214280     1.93200
Cr2535     Cr  0.78878266  0.84590690  0.38250292     1.39100
O2536       O  0.79654303  0.87555738  0.41194224    -1.21800
O2537       O  0.64910041  0.76717020  0.50218811    -0.84100
O2538       O  0.61136473  0.73016095  0.45042477    -0.81100
C2539       C  0.59993616  0.70755422  0.43071838     0.99400
O2540       O  0.58904057  0.68261421  0.44531822    -0.81200
O2541       O  0.63718926  0.67634596  0.45636663    -0.83800
C2542       C  0.66137847  0.68086636  0.46944527     1.03900
O2543       O  0.67085990  0.69431764  0.49968039    -0.76600
O2544       O  0.67826911  0.74931794  0.49295430    -0.76800
C2545       C  0.67220858  0.76936760  0.48826780     1.03900
O2546       O  0.59509348  0.73285777  0.05067830    -0.84100
O2547       O  0.56121764  0.69992184  0.99412693    -0.81100
C2548       C  0.54913917  0.67449643  0.00729631     0.99400
O2549       O  0.56340706  0.66120904  0.01068348    -0.81200
O2550       O  0.61046396  0.65387479  0.02953773    -0.83800
C2551       C  0.61832686  0.66222637  0.06232086     1.03900
O2552       O  0.62641586  0.68794233  0.07208326    -0.76600
O2553       O  0.63925413  0.74483088  0.07005062    -0.76700
C2554       C  0.61384623  0.74113727  0.07622232     1.03800
Cr2555     Cr  0.60971901  0.73037650  0.50470046     1.93700
Cr2556     Cr  0.60483445  0.67080009  0.48872108     1.93200
Cr2557     Cr  0.64884946  0.71963349  0.03721559     1.39100
O2558       O  0.61796757  0.70776920  0.00762188    -1.21800
O2559       O  0.87967155  0.63989724  0.05596924    -0.84100
O2560       O  0.87136477  0.58769656  0.03320655    -0.81100
C2561       C  0.89158018  0.59397560  0.01015152     0.99400
O2562       O  0.91740728  0.60163730  0.02072123    -0.81200
O2563       O  0.96759785  0.63060172  0.06138154    -0.83800
C2564       C  0.97570895  0.65641608  0.05268143     1.03900
O2565       O  0.96131921  0.66834469  0.06362386    -0.76600
O2566       O  0.91435973  0.67266472  0.09124440    -0.76800
C2567       C  0.89554895  0.66589416  0.06574694     1.03900
O2568       O  0.86999548  0.62060754  0.13163239    -0.84100
O2569       O  0.86408335  0.56874706  0.10932863    -0.81100
C2570       C  0.87128167  0.55085914  0.09732913     0.99400
O2571       O  0.89286823  0.55906832  0.07642266    -0.81200
O2572       O  0.94189304  0.59395857  0.12176906    -0.83800
C2573       C  0.96132765  0.61672008  0.13785170     1.03900
O2574       O  0.96404940  0.64130701  0.13067047    -0.76600
O2575       O  0.91440970  0.64069768  0.15573967    -0.76700
C2576       C  0.88689888  0.62885324  0.15940969     1.03800
Cr2577     Cr  0.87446877  0.60538167  0.08309383     1.93700
Cr2578     Cr  0.92840449  0.59778079  0.07151748     1.93200
Cr2579     Cr  0.93643615  0.65309076  0.10871657     1.39100
O2580       O  0.91294699  0.61877241  0.08801456    -1.21800
O2581       O  0.77167385  0.62332392  0.42020337    -0.84100
O2582       O  0.73664871  0.62256500  0.36421425    -0.81100
C2583       C  0.71467364  0.61148820  0.34307932     0.99400
O2584       O  0.68887303  0.59651715  0.35572467    -0.81200
O2585       O  0.68115125  0.54275187  0.37328585    -0.83800
C2586       C  0.68498677  0.52386643  0.38948477     1.03900
O2587       O  0.69794952  0.52962114  0.42048254    -0.76600
O2588       O  0.75368876  0.57646560  0.41442885    -0.76800
C2589       C  0.77389732  0.60199359  0.40855476     1.03900
O2590       O  0.73499899  0.63282886  0.47125618    -0.84100
O2591       O  0.70403981  0.63811691  0.41391039    -0.81100
C2592       C  0.67792151  0.62492812  0.42518615     0.99400
O2593       O  0.66403316  0.59762325  0.42693802    -0.81200
O2594       O  0.65470734  0.54205123  0.44169674    -0.83800
C2595       C  0.66317016  0.54090268  0.47416244     1.03900
O2596       O  0.68949869  0.55676747  0.48390917    -0.76600
O2597       O  0.74694693  0.59974822  0.48492033    -0.76700
C2598       C  0.74399669  0.62129950  0.49438118     1.03800
Cr2599     Cr  0.73485292  0.62621514  0.41779679     1.93700
Cr2600     Cr  0.67499476  0.57142317  0.40114415     1.93200
Cr2601     Cr  0.72148596  0.56738399  0.44885797     1.39100
O2602       O  0.71024308  0.58823332  0.42246835    -1.21800
O2603       O  0.84795470  0.61106531  0.34428660    -0.84100
O2604       O  0.88285365  0.60497187  0.39559568    -0.81100
C2605       C  0.89860021  0.59601332  0.41063896     0.99400
O2606       O  0.91170673  0.58639607  0.39122116    -0.81200
O2607       O  0.86262558  0.53423936  0.37215334    -0.83800
C2608       C  0.84025450  0.51583545  0.35443549     1.03900
O2609       O  0.83373821  0.52198205  0.32322257    -0.76600
O2610       O  0.82014230  0.56482900  0.33077758    -0.76800
C2611       C  0.82355544  0.58780038  0.34541214     1.03900
O2612       O  0.89569193  0.62996484  0.29134819    -0.84100
O2613       O  0.93157693  0.62884234  0.34300024    -0.81100
C2614       C  0.94423151  0.61767963  0.32496010     0.99400
O2615       O  0.93177092  0.59076563  0.31857954    -0.81200
O2616       O  0.88721847  0.53473668  0.30394107    -0.83800
C2617       C  0.87987929  0.53599501  0.27129015     1.03900
O2618       O  0.87192562  0.55400632  0.26266806    -0.76600
O2619       O  0.85507969  0.59509417  0.26709078    -0.76700
C2620       C  0.87900173  0.61874512  0.26397093     1.03800
Cr2621     Cr  0.88846979  0.61607141  0.34263328     1.93700
Cr2622     Cr  0.89701393  0.56301519  0.34524053     1.93200
Cr2623     Cr  0.84739552  0.56061722  0.29815096     1.39100
O2624       O  0.87735224  0.57993022  0.32869222    -1.21800
O2625       O  0.64391304  0.88877031  0.12499436    -0.84100
O2626       O  0.59581190  0.88924170  0.14975349    -0.81100
C2627       C  0.60108161  0.91238665  0.16677667     0.99400
O2628       O  0.60654577  0.93533892  0.15022778    -0.81200
O2629       O  0.63572366  0.97823793  0.10047103    -0.83800
C2630       C  0.66093735  0.98588575  0.11302381     1.03900
O2631       O  0.67240750  0.97018849  0.10678618    -0.76600
O2632       O  0.67711963  0.92147973  0.08937369    -0.76800
C2633       C  0.67000174  0.90305744  0.11478751     1.03900
O2634       O  0.61816108  0.87182140  0.05158817    -0.84100
O2635       O  0.56975561  0.87061242  0.07613855    -0.81100
C2636       C  0.55233393  0.87938896  0.08453876     0.99400
O2637       O  0.56169238  0.90392809  0.09898578    -0.81200
O2638       O  0.59621533  0.94376671  0.04453022    -0.83800
C2639       C  0.61871420  0.96021952  0.02612545     1.03900
O2640       O  0.64391356  0.96466141  0.03579741    -0.76600
O2641       O  0.64332570  0.91363061  0.02294395    -0.76700
C2642       C  0.62827500  0.88615749  0.02232494     1.03800
Cr2643     Cr  0.60812670  0.88336913  0.09963723     1.93700
Cr2644     Cr  0.60165483  0.93848945  0.09750013     1.93200
Cr2645     Cr  0.65655303  0.94077571  0.06564923     1.39100
O2646       O  0.62214587  0.92052839  0.08759826    -1.21800
O2647       O  0.60247385  0.75503113  0.28558433    -0.84100
O2648       O  0.60969722  0.71067274  0.30988423    -0.81100
C2649       C  0.58787279  0.69080683  0.32698020     0.99400
O2650       O  0.56508536  0.67240608  0.31024318    -0.81200
O2651       O  0.52041235  0.65687491  0.26142135    -0.83800
C2652       C  0.51173438  0.67313911  0.27493638     1.03900
O2653       O  0.52490732  0.69984360  0.26741123    -0.76600
O2654       O  0.57013833  0.75341599  0.24613776    -0.76800
C2655       C  0.58654608  0.76484459  0.27373639     1.03900
O2656       O  0.62088833  0.74917308  0.21065784    -0.84100
O2657       O  0.62893644  0.70573714  0.23542396    -0.81100
C2658       C  0.62179665  0.67986624  0.24223966     0.99400
O2659       O  0.59783745  0.66328265  0.25704743    -0.81200
O2660       O  0.55455066  0.65377887  0.20403638    -0.83800
C2661       C  0.53467259  0.65643110  0.18759164     1.03900
O2662       O  0.52890137  0.67608121  0.19716279    -0.76600
O2663       O  0.57804988  0.72687076  0.18175859    -0.76700
C2664       C  0.60567624  0.74215068  0.18108529     1.03800
Cr2665     Cr  0.61254566  0.72814192  0.25941542     1.93700
Cr2666     Cr  0.56099899  0.66487964  0.25713711     1.93200
Cr2667     Cr  0.55247297  0.71339810  0.22500175     1.39100
O2668       O  0.57574058  0.70244728  0.24722661    -1.21800
O2669       O  0.89166786  0.74024221  0.01931220    -0.84100
O2670       O  0.89409137  0.77974415  0.06980754    -0.81100
C2671       C  0.90191983  0.80368271  0.08560268     0.99400
O2672       O  0.90984174  0.82600807  0.06657192    -0.81200
O2673       O  0.96487760  0.83117438  0.05724086    -0.83800
C2674       C  0.98450058  0.82695736  0.04316451     1.03900
O2675       O  0.98112772  0.81507514  0.01188568    -0.76600
O2676       O  0.93897469  0.75947254  0.01118433    -0.76800
C2677       C  0.91515194  0.73922132  0.02259317     1.03900
O2678       O  0.88850731  0.77438663  0.45575755    -0.84100
O2679       O  0.87651042  0.80726446  0.50244568    -0.81100
C2680       C  0.88840537  0.83188381  0.48691128     0.99400
O2681       O  0.91129679  0.84393071  0.99334773    -0.81200
O2682       O  0.97574101  0.86375235  0.49062803    -0.83800
C2683       C  0.98165474  0.85576589  0.46084062     1.03900
O2684       O  0.96695186  0.82974561  0.45030638    -0.76600
O2685       O  0.92842320  0.77122111  0.44943434    -0.76700
C2686       C  0.90541676  0.76968947  0.43590478     1.03800
Cr2687     Cr  0.88606554  0.77511169  0.01575456     1.93700
Cr2688     Cr  0.93767712  0.83681516  0.02511262     1.93200
Cr2689     Cr  0.95566609  0.79905443  0.48749659     1.39100
O2690       O  0.92316315  0.80120314  0.00644467    -1.21800
O2691       O  0.76736371  0.66436339  0.17793372    -0.84100
O2692       O  0.72756500  0.62296504  0.22396292    -0.81100
C2693       C  0.70284995  0.60676474  0.23818499     0.99400
O2694       O  0.68023824  0.59462391  0.21820468    -0.81200
O2695       O  0.67309199  0.64229703  0.20587026    -0.83800
C2696       C  0.67587110  0.66519498  0.19149084     1.03900
O2697       O  0.68780578  0.67354518  0.16051305    -0.76600
O2698       O  0.74461882  0.68970661  0.17261170    -0.76800
C2699       C  0.76575631  0.68712347  0.18450454     1.03900
O2700       O  0.74263120  0.62214378  0.11642650    -0.84100
O2701       O  0.70676153  0.58004187  0.16396615    -0.81100
C2702       C  0.68173044  0.56657835  0.14838421     0.99400
O2703       O  0.66617944  0.57839487  0.14379509    -0.81200
O2704       O  0.65189066  0.62155570  0.13399344    -0.81400
C2705       C  0.66117445  0.63123204  0.10235260     1.03900
O2706       O  0.68806084  0.64261080  0.09532359    -0.76600
O2707       O  0.74767271  0.66470981  0.10418546    -0.76700
C2708       C  0.74893277  0.64258650  0.09409313     1.03800
Cr2709     Cr  0.73437122  0.62318768  0.16980463     1.93700
Cr2710     Cr  0.67077021  0.61089612  0.17431597     1.93200
Cr2711     Cr  0.71645101  0.66512296  0.13489690     1.39100
O2712       O  0.70736544  0.63310306  0.15975291    -1.21800
C2713       C  0.66268626  0.68106214  0.20856693    -0.15200
C2714       C  0.64065404  0.66781863  0.23222907    -0.30300
H2715       H  0.66822712  0.70225589  0.19771496     0.13900
H2716       H  0.63407606  0.64591508  0.24133732     0.14400
C2717       C  0.52083902  0.86147376  0.07647689    -0.15200
C2718       C  0.50991334  0.83536221  0.06025518    -0.30300
H2719       H  0.50695185  0.87113371  0.08058932     0.13900
H2720       H  0.02673768  0.82948587  0.05537139     0.14400
C2721       C  0.68376401  0.52455171  0.12138220    -0.15200
C2722       C  0.66883512  0.53598303  0.13763606    -0.30300
H2723       H  0.70688530  0.53804251  0.11523575     0.13900
H2724       H  0.64512665  0.52295008  0.13984592     0.14400
C2725       C  0.98478402  0.66266616  0.29881424    -0.15200
C2726       C  0.97392247  0.63534480  0.31123803    -0.30300
H2727       H  0.47481497  0.67165653  0.30638338     0.13900
H2728       H  0.98569771  0.62357565  0.30628493     0.14400
C2729       C  0.79999196  0.60687433  0.38779318    -0.15200
C2730       C  0.79826141  0.58632388  0.36455598    -0.30300
H2731       H  0.82028762  0.62734333  0.39097485     0.13900
H2732       H  0.77750598  0.56627693  0.36126077     0.14400
C2733       C  0.61714237  0.97572125  0.99354588    -0.15200
C2734       C  0.64378763  0.51879305  0.50044986    -0.30300
H2735       H  0.62168018  0.96831503  0.96776649     0.13900
H2736       H  0.64879695  0.52453684  0.52939176     0.14400
C2737       C  0.74963063  0.61479992  0.03987467    -0.15200
C2738       C  0.75543809  0.64030035  0.05493553    -0.30300
H2739       H  0.74395051  0.59643078  0.05784822     0.13900
H2740       H  0.75993948  0.65844146  0.03709388     0.14400
C2741       C  0.71977159  0.61683749  0.30318584    -0.15200
C2742       C  0.69901758  0.60126921  0.27809947    -0.30300
H2743       H  0.74130294  0.63347786  0.29427323     0.13900
H2744       H  0.67759218  0.58455964  0.28724668     0.14400
C2745       C  0.91592227  0.71484450  0.04108308    -0.15200
C2746       C  0.89228222  0.68884032  0.04693184    -0.30300
H2747       H  0.93735259  0.71845924  0.04987769     0.13900
H2748       H  0.87099446  0.68389688  0.03589075     0.14400
C2749       C  0.51486563  0.63496169  0.16030423    -0.15200
C2750       C  0.98225177  0.61626306  0.16478506    -0.30300
H2751       H  0.52107464  0.63909658  0.13158851     0.13900
H2752       H  0.97448807  0.61063167  0.19280150     0.14400
C2753       C  0.88936400  0.63257346  0.22758689    -0.15200
C2754       C  0.87350161  0.62217342  0.19647184    -0.30300
H2755       H  0.91217469  0.64949087  0.22579597     0.13900
H2756       H  0.85050996  0.60573690  0.19817640     0.14400
C2757       C  0.88528836  0.59757438  0.47584801    -0.15200
C2758       C  0.90387081  0.59779772  0.45045188    -0.30300
H2759       H  0.86459233  0.59602115  0.46764060     0.13900
H2760       H  0.92372828  0.59776559  0.45920176     0.14400
C2761       C  0.62389602  0.64392847  0.08731003    -0.15200
C2762       C  0.64164730  0.63394429  0.07576328    -0.30300
H2763       H  0.62124073  0.64603937  0.11658972     0.13900
H2764       H  0.64740196  0.63545997  0.04686418     0.14400
C2765       C  0.62037231  0.74995457  0.14463187    -0.15200
C2766       C  0.60435731  0.74450335  0.11340656    -0.30300
H2767       H  0.64348601  0.75642763  0.14324407     0.13900
H2768       H  0.58136016  0.73843631  0.11555579     0.14400
C2769       C  0.59985896  0.71076952  0.39024779    -0.15200
C2770       C  0.58852916  0.68785734  0.36727386    -0.30300
H2771       H  0.60987530  0.73256347  0.37902071     0.13900
H2772       H  0.57719096  0.66603940  0.37842751     0.14400
C2773       C  0.51789998  0.65937405  0.01849833    -0.15200
C2774       C  0.50606203  0.67209555  0.03924360    -0.30300
H2775       H  0.50560685  0.63599523  0.01432181     0.13900
H2776       H  0.01266939  0.69520129  0.02640219     0.14400
C2777       C  0.66307020  0.64124559  0.43642170    -0.15200
C2778       C  0.67758561  0.66809697  0.45130760    -0.30300
H2779       H  0.63923205  0.62956846  0.43641736     0.13900
H2780       H  0.70123411  0.67871650  0.45497140     0.14400
C2781       C  0.71275492  0.79511655  0.44488956    -0.15200
C2782       C  0.69239127  0.79554848  0.46688005    -0.30300
H2783       H  0.71395382  0.77523170  0.44294756     0.13900
H2784       H  0.69060448  0.81506932  0.46923285     0.14400
C2785       C  0.83745315  0.97436066  0.40469603    -0.15200
C2786       C  0.82605377  0.98534109  0.38061305    -0.30300
H2787       H  0.86001264  0.98772617  0.41400000     0.13900
H2788       H  0.80279366  0.47091233  0.35484860     0.14400
C2789       C  0.87024020  0.84344301  0.47120562    -0.15200
C2790       C  0.84342317  0.82682763  0.45610217    -0.30300
H2791       H  0.87494279  0.86394415  0.98203869     0.13900
H2792       H  0.83446910  0.80356889  0.45276422     0.14400
C2793       C  0.72065455  0.91852011  0.13456623    -0.15200
C2794       C  0.69237351  0.89785331  0.13318487    -0.30300
H2795       H  0.72697536  0.93947306  0.12227824     0.13900
H2796       H  0.68524351  0.87768089  0.14794419     0.14400
C2797       C  0.86824169  0.98671897  0.26140309    -0.15200
C2798       C  0.87510303  0.51300420  0.24521823    -0.30300
H2799       H  0.86419723  0.98073674  0.29022798     0.13900
H2800       H  0.87663964  0.51797373  0.21605215     0.14400
C2801       C  0.75530090  0.88248110  0.30579672    -0.15200
C2802       C  0.75751613  0.86945072  0.27524834    -0.30300
H2803       H  0.75494586  0.90276245  0.30332061     0.13900
H2804       H  0.75884484  0.84967563  0.27774739     0.14400
C2805       C  0.78867456  0.89482510  0.03180443    -0.15200
C2806       C  0.81195718  0.90403565  0.05424138    -0.30300
H2807       H  0.76698715  0.88733088  0.04310132     0.13900
H2808       H  0.83353958  0.91097461  0.04293544     0.14400
C2809       C  0.83270235  0.50843363  0.13036839    -0.15200
C2810       C  0.85517587  0.51994621  0.10693112    -0.30300
H2811       H  0.83592360  0.02919708  0.14245351     0.13900
H2812       H  0.86356663  0.50643401  0.09574419     0.14400
C2813       C  0.78846542  0.71180579  0.20579823    -0.15200
C2814       C  0.80882082  0.71062311  0.22722803    -0.30300
H2815       H  0.78731113  0.73174934  0.20504525     0.13900
H2816       H  0.81037151  0.69092385  0.22835831     0.14400
C2817       C  0.90041693  0.78624450  0.14903689    -0.15200
C2818       C  0.90263336  0.80680405  0.12578646    -0.30300
H2819       H  0.89598064  0.76517825  0.13867438     0.13900
H2820       H  0.90647887  0.82757114  0.13661708     0.14400
C2821       C  0.89987077  0.76416662  0.39589538    -0.15200
C2822       C  0.87622015  0.76255759  0.37901701    -0.30300
H2823       H  0.91729019  0.76457647  0.37944800     0.13900
H2824       H  0.85860604  0.76177286  0.39542425     0.14400
C2825       C  0.88179593  0.86809523  0.34060538    -0.15200
C2826       C  0.86626221  0.88099491  0.33080006    -0.30300
H2827       H  0.88402449  0.86467365  0.36966281     0.13900
H2828       H  0.86094113  0.88119634  0.30186260     0.14400
C2829       C  0.83103968  0.83915001  0.20720826    -0.15200
C2830       C  0.84656993  0.86509772  0.19107156    -0.30300
H2831       H  0.80767576  0.83023540  0.21153987     0.13900
H2832       H  0.87036432  0.87539971  0.19084133     0.14400
C2833       C  0.58583909  0.78942083  0.29239491    -0.15200
C2834       C  0.60687176  0.80827797  0.31559293    -0.30300
H2835       H  0.56719121  0.79241093  0.28612684     0.13900
H2836       H  0.62673420  0.80705188  0.32010475     0.14400
C2837       C  0.51569194  0.87776381  0.41472481    -0.15200
C2838       C  0.00894811  0.87528220  0.44214404    -0.30300
H2839       H  0.49597409  0.87092293  0.39816645     0.13900
H2840       H  0.02881139  0.88693298  0.45867557     0.14400
C2841       C  0.64723665  0.98187222  0.36818683    -0.15200
C2842       C  0.67592088  0.99701507  0.37828100    -0.30300
H2843       H  0.63336065  0.99132341  0.37374022     0.13900
H2844       H  0.68307076  0.48145986  0.37912896     0.14400
C2845       C  0.99684886  0.82681601  0.28890383    -0.15200
C2846       C  0.98211131  0.84101994  0.28124802    -0.30300
H2847       H  0.48820896  0.80679250  0.29844219     0.13900
H2848       H  0.99339497  0.86452976  0.28430449     0.14400
C2849       C  0.63969000  0.89197007  0.45432414    -0.15200
C2850       C  0.62474740  0.87838734  0.48444161    -0.30300
H2851       H  0.66021353  0.91226958  0.45739247     0.13900
H2852       H  0.60374112  0.85859695  0.48147343     0.14400
C2853       C  0.61314856  0.90090539  0.22721968    -0.15200
C2854       C  0.60083849  0.91315020  0.20687814    -0.30300
H2855       H  0.62238429  0.88879571  0.21407107     0.13900
H2856       H  0.59284477  0.92641357  0.21980687     0.14400
O2857       O  0.62457722  0.84709915  0.84070128    -0.84100
O2858       O  0.62364954  0.88152326  0.78552893    -0.81100
C2859       C  0.61568513  0.89623244  0.76660907     0.99400
O2860       O  0.60355071  0.90897153  0.78174416    -0.81200
O2861       O  0.54935306  0.86003600  0.78913676    -0.83800
C2862       C  0.52890482  0.83732081  0.80309324     1.03900
O2863       O  0.53163421  0.82893898  0.83491782    -0.76600
O2864       O  0.57710132  0.81817911  0.84005412    -0.76800
C2865       C  0.60246876  0.82286674  0.83279775     1.03900
O2866       O  0.63418760  0.89262130  0.89229022    -0.84100
O2867       O  0.63896190  0.92911277  0.83810645    -0.81100
C2868       C  0.62493919  0.94097257  0.85108734     0.99400
O2869       O  0.59733422  0.92712982  0.85281614    -0.81200
O2870       O  0.53955073  0.88124202  0.85425707    -0.83800
C2871       C  0.53450125  0.87089392  0.88611583     1.03900
O2872       O  0.55166873  0.86360855  0.90103614    -0.76600
O2873       O  0.59684264  0.85140331  0.91052188    -0.76700
C2874       C  0.62048157  0.87501826  0.91742727     1.03800
Cr2875     Cr  0.62739464  0.88649038  0.83941610     1.93700
Cr2876     Cr  0.57393613  0.89317565  0.82142056     1.93200
Cr2877     Cr  0.56638617  0.84271362  0.86988316     1.39100
O2878       O  0.58917467  0.87394049  0.84386219    -1.21800
O2879       O  0.85211914  0.73724731  0.75603443    -0.84100
O2880       O  0.88725508  0.77134876  0.70258636    -0.81100
C2881       C  0.89997132  0.79357376  0.68311661     0.99400
O2882       O  0.91377891  0.81858175  0.69780229    -0.81200
O2883       O  0.86831196  0.82644784  0.71613568    -0.83800
C2884       C  0.84713577  0.82574508  0.73286405     1.03900
O2885       O  0.84115207  0.81597333  0.76535236    -0.76600
O2886       O  0.82619560  0.75939727  0.76060711    -0.76800
C2887       C  0.82851099  0.73800120  0.75038853     1.03900
O2888       O  0.90130007  0.76877350  0.80816571    -0.84100
O2889       O  0.93738539  0.79990522  0.75287539    -0.81100
C2890       C  0.95179583  0.82597838  0.76456225     0.99400
O2891       O  0.93954443  0.84109791  0.76889832    -0.81200
O2892       O  0.89533598  0.85450667  0.78400931    -0.83800
C2893       C  0.88783167  0.84738638  0.81712424     1.03900
O2894       O  0.87920606  0.82181970  0.82720211    -0.76600
O2895       O  0.85930439  0.76345124  0.82662106    -0.76700
C2896       C  0.88303095  0.76335375  0.83322005     1.03800
Cr2897     Cr  0.89376154  0.77119401  0.75567757     1.93700
Cr2898     Cr  0.90306392  0.83262197  0.74345447     1.93200
Cr2899     Cr  0.85364651  0.79052393  0.79293955     1.39100
O2900       O  0.88352869  0.79802473  0.76401901    -1.21800
O2901       O  0.74179049  0.88153830  0.65966106    -0.84100
O2902       O  0.78505236  0.89111221  0.61011633    -0.81100
C2903       C  0.81008620  0.90285054  0.59563522     0.99400
O2904       O  0.83299480  0.91393573  0.61531533    -0.81200
O2905       O  0.83434575  0.96462096  0.63640321    -0.83800
C2906       C  0.82820838  0.98161538  0.65369190     1.03900
O2907       O  0.81333397  0.97340921  0.68297102    -0.76600
O2908       O  0.75833100  0.92816092  0.66661879    -0.76800
C2909       C  0.73900674  0.90370161  0.65464717     1.03900
O2910       O  0.77252440  0.86560334  0.71358151    -0.84100
O2911       O  0.81100342  0.86904092  0.66242245    -0.81100
C2912       C  0.83433105  0.88047803  0.68152025     0.99400
O2913       O  0.84752319  0.90717489  0.68906889    -0.81200
O2914       O  0.85462597  0.96076915  0.70719683    -0.83800
C2915       C  0.84354117  0.95754774  0.73865464     1.03900
O2916       O  0.81680655  0.94002672  0.74357085    -0.76600
O2917       O  0.76024668  0.89740006  0.73245577    -0.76700
C2918       C  0.76290606  0.87517070  0.73837614     1.03800
Cr2919     Cr  0.77915486  0.87948743  0.66231154     1.93700
Cr2920     Cr  0.83948104  0.93496232  0.66297891     1.93200
Cr2921     Cr  0.78800858  0.93339051  0.70429287     1.39100
O2922       O  0.80216890  0.91601853  0.67641766    -1.21800
O2923       O  0.73199867  0.84026470  0.92217368    -0.84100
O2924       O  0.76805001  0.87808076  0.97348204    -0.81100
C2925       C  0.79112259  0.89258455  0.99190366     0.99400
O2926       O  0.81587271  0.90513962  0.97638939    -0.81200
O2927       O  0.82577589  0.86011129  0.96187360    -0.83800
C2928       C  0.82429812  0.83803363  0.94679711     1.03900
O2929       O  0.81214686  0.82951531  0.91541508    -0.76600
O2930       O  0.75438338  0.81453765  0.92083413    -0.76800
C2931       C  0.73301274  0.81750176  0.93047803     1.03900
O2932       O  0.76199366  0.88557917  0.86698465    -0.84100
O2933       O  0.79435536  0.92459374  0.92014374    -0.81100
C2934       C  0.81998961  0.93805591  0.90696256     0.99400
O2935       O  0.83514795  0.92581105  0.90336747    -0.81200
O2936       O  0.85044226  0.88355255  0.89205037    -0.83800
C2937       C  0.84250791  0.87467235  0.85936043     1.03900
O2938       O  0.81587057  0.86274339  0.85031778    -0.76600
O2939       O  0.75724070  0.84352489  0.85106913    -0.76700
C2940       C  0.75673152  0.86658100  0.84285603     1.03800
Cr2941     Cr  0.76607770  0.88126670  0.92000701     1.93700
Cr2942     Cr  0.82898623  0.89218284  0.93189360     1.93200
Cr2943     Cr  0.78521995  0.83977054  0.88642274     1.39100
O2944       O  0.79333848  0.87099227  0.91287362    -1.21800
O2945       O  0.64273604  0.76831189  0.00092099    -0.84100
O2946       O  0.61137253  0.73162545  0.94509506    -0.81100
C2947       C  0.60241823  0.70914066  0.92554630     0.99400
O2948       O  0.59045281  0.68426293  0.94021693    -0.81200
O2949       O  0.63819381  0.67992228  0.96294416    -0.83800
C2950       C  0.66023115  0.68391403  0.98174773     1.03900
O2951       O  0.66536737  0.69652965  0.01274396    -0.76600
O2952       O  0.67318843  0.75131801  0.00302480    -0.76800
C2953       C  0.66722366  0.77057621  0.99283906     1.03900
O2954       O  0.60758327  0.73182076  0.55918148    -0.84100
O2955       O  0.56686084  0.69939543  0.50586137    -0.81100
C2956       C  0.55573322  0.67395547  0.51874402     0.99400
O2957       O  0.57033320  0.66091744  0.51944053    -0.81200
O2958       O  0.61796416  0.65225099  0.52756172    -0.83800
C2959       C  0.62966721  0.66157559  0.55892062     1.03900
O2960       O  0.64080220  0.68800171  0.56738417    -0.76600
O2961       O  0.65381227  0.74463073  0.56650353    -0.76700
C2962       C  0.62975768  0.74028947  0.57999786     1.03800
Cr2963     Cr  0.60366006  0.73141818  0.99832391     1.93700
Cr2964     Cr  0.60155956  0.67258982  0.98740202     1.93200
Cr2965     Cr  0.65850488  0.71843776  0.52986073     1.39100
O2966       O  0.62428652  0.70636629  0.50764368    -1.21800
O2967       O  0.88383404  0.64675799  0.56780784    -0.84100
O2968       O  0.87419070  0.59544968  0.53971901    -0.81100
C2969       C  0.89311342  0.59949876  0.51530299     0.99400
O2970       O  0.91884163  0.60521857  0.52392122    -0.81200
O2971       O  0.97219908  0.63261033  0.55976976    -0.83800
C2972       C  0.98116177  0.65865465  0.55091418     1.03900
O2973       O  0.96708464  0.67089093  0.56150066    -0.76600
O2974       O  0.92486377  0.67997364  0.59303402    -0.76800
C2975       C  0.90266656  0.67297190  0.57291295     1.03900
O2976       O  0.88015286  0.62536883  0.64340330    -0.84100
O2977       O  0.86910597  0.57318213  0.61522985    -0.81100
C2978       C  0.87534662  0.55493682  0.60207541     0.99400
O2979       O  0.89578426  0.56293109  0.57937849    -0.81200
O2980       O  0.94607514  0.59679212  0.62217411    -0.83800
C2981       C  0.96647138  0.61919385  0.63751728     1.03900
O2982       O  0.97134833  0.64436946  0.62886802    -0.76600
O2983       O  0.92724631  0.65036807  0.65785666    -0.76700
C2984       C  0.90070406  0.63755395  0.66709465     1.03800
Cr2985     Cr  0.88012379  0.61133064  0.59165592     1.93700
Cr2986     Cr  0.93187051  0.60118568  0.57299589     1.93200
Cr2987     Cr  0.94514219  0.65847626  0.60879545     1.39100
O2988       O  0.91870665  0.62371634  0.59142154    -1.21800
O2989       O  0.76600963  0.62325993  0.89992993    -0.84100
O2990       O  0.72320557  0.63199929  0.87334457    -0.81100
C2991       C  0.70925733  0.61240331  0.84909209     0.99400
O2992       O  0.68942581  0.58733867  0.85815694    -0.81200
O2993       O  0.66551778  0.53599122  0.89495042    -0.83800
C2994       C  0.68284157  0.52733168  0.88501923     1.03900
O2995       O  0.70934180  0.54139726  0.89474616    -0.76600
O2996       O  0.76040215  0.58345101  0.92541186    -0.76800
C2997       C  0.77388157  0.60458946  0.90416959     1.03900
O2998       O  0.75063304  0.62816368  0.97636895    -0.84100
O2999       O  0.70751242  0.63797479  0.94982295    -0.81100
C3000       C  0.68315379  0.63229838  0.93611876     0.99400
O3001       O  0.67047669  0.61153922  0.91379127    -0.81200
O3002       O  0.65567812  0.56159119  0.95720949    -0.83800
C3003       C  0.65853649  0.54124467  0.97147281     1.03900
O3004       O  0.67981626  0.53741529  0.96300113    -0.76600
O3005       O  0.73003451  0.58177619  0.99106496    -0.76700
C3006       C  0.74370479  0.60822072  0.00004787     1.03800
Cr3007     Cr  0.73479831  0.62721605  0.92515744     1.93700
Cr3008     Cr  0.67337579  0.57560820  0.90771443     1.93200
Cr3009     Cr  0.71930348  0.56340732  0.94216895     1.39100
O3010       O  0.70948368  0.58907439  0.92553258    -1.21800
O3011       O  0.84406814  0.60455933  0.84093804    -0.84100
O3012       O  0.88296990  0.60273220  0.89046467    -0.81100
C3013       C  0.89854326  0.59351808  0.90562879     0.99400
O3014       O  0.90984630  0.58158522  0.88690346    -0.81200
O3015       O  0.86152613  0.52798419  0.87065557    -0.83800
C3016       C  0.83839414  0.50909295  0.85472484     1.03900
O3017       O  0.83043515  0.51446651  0.82430228    -0.76600
O3018       O  0.81722553  0.55710329  0.83920316    -0.76800
C3019       C  0.82105496  0.58142903  0.84956811     1.03900
O3020       O  0.88770831  0.61975423  0.78312959    -0.84100
O3021       O  0.92783334  0.62369360  0.83453731    -0.81100
C3022       C  0.94107165  0.61221426  0.81867756     0.99400
O3023       O  0.92873751  0.58520289  0.81333780    -0.81200
O3024       O  0.88402246  0.52966109  0.79930704    -0.83800
C3025       C  0.87480042  0.53073894  0.76751540     1.03900
O3026       O  0.86268519  0.54583183  0.76136417    -0.76600
O3027       O  0.84319051  0.58520169  0.77090777    -0.76700
C3028       C  0.86649774  0.60720531  0.76074175     1.03800
Cr3029     Cr  0.88475764  0.61011389  0.83652150     1.93700
Cr3030     Cr  0.89444485  0.55742801  0.84146599     1.93200
Cr3031     Cr  0.84076214  0.55232862  0.80077683     1.39100
O3032       O  0.87336288  0.57330422  0.82634482    -1.21800
O3033       O  0.66238682  0.89969663  0.59881238    -0.84100
O3034       O  0.62715213  0.90437598  0.65020408    -0.81100
C3035       C  0.61130713  0.91264444  0.66610544     0.99400
O3036       O  0.59742113  0.92232464  0.64786966    -0.81200
O3037       O  0.64337772  0.97477293  0.63025410    -0.83800
C3038       C  0.66587552  0.99398383  0.61459958     1.03900
O3039       O  0.67372614  0.98893439  0.58370632    -0.76600
O3040       O  0.68872249  0.94686035  0.59300586    -0.76800
C3041       C  0.68626243  0.92322623  0.60368067     1.03900
O3042       O  0.61421127  0.88101444  0.54634424    -0.84100
O3043       O  0.57784536  0.88008792  0.59943501    -0.81100
C3044       C  0.56346122  0.89026237  0.58296198     0.99400
O3045       O  0.57545550  0.91673804  0.57455795    -0.81200
O3046       O  0.61918694  0.97382899  0.55982152    -0.83800
C3047       C  0.62786252  0.97297812  0.52773505     1.03900
O3048       O  0.63796442  0.95640480  0.52067598    -0.76600
O3049       O  0.65608924  0.91640974  0.52656247    -0.76700
C3050       C  0.63250815  0.89253808  0.52107874     1.03800
Cr3051     Cr  0.62124050  0.89391432  0.59783099     1.93700
Cr3052     Cr  0.61024075  0.94558608  0.60170129     1.93200
Cr3053     Cr  0.66201304  0.95056571  0.55793965     1.39100
O3054       O  0.63125016  0.93001758  0.58569850    -1.21800
O3055       O  0.60440491  0.74932374  0.77931794    -0.84100
O3056       O  0.61753291  0.70934436  0.80325475    -0.81100
C3057       C  0.59884907  0.68960537  0.82399817     0.99400
O3058       O  0.57559450  0.66858466  0.81155082    -0.81200
O3059       O  0.52405493  0.64844639  0.77543113    -0.83800
C3060       C  0.51476048  0.66485475  0.78732738     1.03900
O3061       O  0.52705048  0.69110774  0.77787745    -0.76600
O3062       O  0.56683247  0.74331603  0.74676445    -0.76800
C3063       C  0.58590154  0.75689908  0.77114520     1.03900
O3064       O  0.61389425  0.73831026  0.70097158    -0.84100
O3065       O  0.62987693  0.69991204  0.72700288    -0.81100
C3066       C  0.62426783  0.67451267  0.73425679     0.99400
O3067       O  0.60112753  0.65736734  0.75058409    -0.81200
O3068       O  0.55057570  0.64293007  0.70932064    -0.83800
C3069       C  0.52839746  0.64371935  0.69707688     1.03900
O3070       O  0.52225258  0.66248730  0.70906515    -0.76600
O3071       O  0.56751646  0.71301037  0.68251471    -0.76700
C3072       C  0.59432618  0.72923369  0.67553763     1.03800
Cr3073     Cr  0.61322323  0.72194075  0.75204749     1.93700
Cr3074     Cr  0.56406596  0.65753237  0.76032328     1.93200
Cr3075     Cr  0.54847663  0.70200558  0.73060867     1.39100
O3076       O  0.57573150  0.69408544  0.74759953    -1.21800
O3077       O  0.89971585  0.74597567  0.51762683    -0.84100
O3078       O  0.89465282  0.78403296  0.56453285    -0.81100
C3079       C  0.90139572  0.80786438  0.58019044     0.99400
O3080       O  0.91017868  0.83049311  0.56136509    -0.81200
O3081       O  0.96720905  0.84032986  0.56109579    -0.83800
C3082       C  0.98854861  0.83707973  0.55157358     1.03900
O3083       O  0.98829069  0.82498950  0.52145830    -0.76600
O3084       O  0.94750145  0.76860924  0.52361653    -0.76800
C3085       C  0.92295731  0.74673424  0.52915182     1.03900
O3086       O  0.87522332  0.76831932  0.96324641    -0.84100
O3087       O  0.87204288  0.80442705  0.01257220    -0.81100
C3088       C  0.88374133  0.82872795  0.99610537     0.99400
O3089       O  0.91597872  0.84778883  0.48677599    -0.81200
O3090       O  0.97051982  0.85747037  0.99006174    -0.83800
C3091       C  0.97451606  0.85055200  0.95851841     1.03900
O3092       O  0.95719775  0.82559323  0.94593499    -0.76600
O3093       O  0.91450283  0.76789144  0.94297150    -0.76700
C3094       C  0.88909671  0.76462659  0.93765990     1.03800
Cr3095     Cr  0.89241475  0.77979640  0.50998837     1.93700
Cr3096     Cr  0.94113720  0.84282648  0.52345485     1.93200
Cr3097     Cr  0.94585783  0.79236823  0.97982549     1.39100
O3098       O  0.92976958  0.80716132  0.50682347    -1.21800
O3099       O  0.77416225  0.64938905  0.67911983    -0.84100
O3100       O  0.73136738  0.61602162  0.72982135    -0.81100
C3101       C  0.70620472  0.60238283  0.74399461     0.99400
O3102       O  0.68351095  0.59106282  0.72374612    -0.81200
O3103       O  0.68068302  0.64035534  0.70854751    -0.83800
C3104       C  0.68601012  0.66398544  0.69390037     1.03900
O3105       O  0.70238951  0.67329904  0.66593470    -0.76600
O3106       O  0.75766928  0.68003456  0.67999588    -0.76800
C3107       C  0.77700120  0.67347839  0.68889311     1.03900
O3108       O  0.74205088  0.60641356  0.62347881    -0.84100
O3109       O  0.70473861  0.56997774  0.67458674    -0.81100
C3110       C  0.68188958  0.55965070  0.65469441     0.99400
O3111       O  0.66925469  0.57413060  0.64821081    -0.81200
O3112       O  0.66073175  0.62083514  0.63588706    -0.81400
C3113       C  0.67192724  0.63134774  0.60511329     1.03900
O3114       O  0.69895160  0.64158994  0.60006403    -0.76600
O3115       O  0.75440658  0.65123215  0.60899247    -0.76700
C3116       C  0.75049578  0.62631779  0.59992342     1.03800
Cr3117     Cr  0.73652543  0.61164211  0.67615688     1.93700
Cr3118     Cr  0.67632156  0.60779162  0.67809544     1.93200
Cr3119     Cr  0.72773269  0.65940525  0.64075608     1.39100
O3120       O  0.71348948  0.62639656  0.66486748    -1.21800
C3121       C  0.67008639  0.67891862  0.70683572    -0.15200
C3122       C  0.64426488  0.66352478  0.72407599    -0.30300
H3123       H  0.67762376  0.70122624  0.69880388     0.13900
H3124       H  0.63659546  0.64085060  0.73041289     0.14400
C3125       C  0.53230997  0.87157247  0.57382686    -0.15200
C3126       C  0.51912694  0.84249544  0.57389555    -0.30300
H3127       H  0.52053753  0.88209989  0.56295059     0.13900
H3128       H  0.02706039  0.83897378  0.57884621     0.14400
C3129       C  0.68404190  0.51704592  0.62960235    -0.15200
C3130       C  0.66889041  0.53050634  0.63908474    -0.30300
H3131       H  0.70709317  0.52617344  0.63671581     0.13900
H3132       H  0.64590488  0.52110179  0.63131821     0.14400
C3133       C  0.98203890  0.65783740  0.79626475    -0.15200
C3134       C  0.97151280  0.63026418  0.80693499    -0.30300
H3135       H  0.47781165  0.66511032  0.81645841     0.13900
H3136       H  0.98480099  0.61985736  0.80362078     0.14400
C3137       C  0.79851206  0.60658534  0.88266004    -0.15200
C3138       C  0.79816563  0.58210108  0.87196326    -0.30300
H3139       H  0.81549309  0.62763208  0.87321693     0.13900
H3140       H  0.77998091  0.56120051  0.87996003     0.14400
C3141       C  0.63046295  0.99376977  0.49917375    -0.15200
C3142       C  0.63683825  0.51981259  0.99677273    -0.30300
H3143       H  0.63312590  0.98801639  0.47125856     0.13900
H3144       H  0.63459899  0.52723331  0.02379500     0.14400
C3145       C  0.75025066  0.63319577  0.53256536    -0.15200
C3146       C  0.75402613  0.61931004  0.56128667    -0.30300
H3147       H  0.74790126  0.65215839  0.53786323     0.13900
H3148       H  0.75463696  0.59937141  0.55632151     0.14400
C3149       C  0.71622290  0.61859030  0.80948180    -0.15200
C3150       C  0.70217226  0.59762177  0.78390348    -0.30300
H3151       H  0.73286139  0.64019646  0.80124987     0.13900
H3152       H  0.68459063  0.57649972  0.79221646     0.14400
C3153       C  0.92279512  0.72245107  0.54930238    -0.15200
C3154       C  0.89928059  0.69603982  0.55410986    -0.30300
H3155       H  0.94393092  0.72659916  0.56007204     0.13900
H3156       H  0.87820145  0.69086626  0.54212800     0.14400
C3157       C  0.50885694  0.62322624  0.66879797    -0.15200
C3158       C  0.98637063  0.61758602  0.66485857    -0.30300
H3159       H  0.51766713  0.62574548  0.64126579     0.13900
H3160       H  0.97761845  0.61010864  0.69212704     0.14400
C3161       C  0.86892759  0.61635371  0.72172342    -0.15200
C3162       C  0.89468053  0.63579618  0.70711257    -0.30300
H3163       H  0.85028450  0.60364687  0.70362349     0.13900
H3164       H  0.91348516  0.64767023  0.72530980     0.14400
C3165       C  0.88468550  0.59224685  0.97048055    -0.15200
C3166       C  0.90506233  0.59714634  0.94519839    -0.30300
H3167       H  0.86257817  0.58656239  0.96189100     0.13900
H3168       H  0.92663693  0.60113216  0.95382648     0.14400
C3169       C  0.63429877  0.64280904  0.58449978    -0.15200
C3170       C  0.65437956  0.63501313  0.57600202    -0.30300
H3171       H  0.62862444  0.64310612  0.61312241     0.13900
H3172       H  0.66280931  0.63836564  0.54813902     0.14400
C3173       C  0.60145037  0.73628786  0.63602755    -0.15200
C3174       C  0.62741179  0.74345462  0.62052579    -0.30300
H3175       H  0.58280710  0.73088137  0.61796837     0.13900
H3176       H  0.64612457  0.74796803  0.63795107     0.14400
C3177       C  0.60534076  0.71198978  0.88512027    -0.15200
C3178       C  0.60318974  0.69017296  0.86400582    -0.30300
H3179       H  0.60866699  0.73195603  0.87245970     0.13900
H3180       H  0.59887636  0.66993565  0.87681778     0.14400
C3181       C  0.52539895  0.65829791  0.53306349    -0.15200
C3182       C  0.50822854  0.67018115  0.53978413    -0.30300
H3183       H  0.51746300  0.63577055  0.54044172     0.13900
H3184       H  0.01831565  0.69811524  0.52618907     0.14400
C3185       C  0.66840705  0.64926266  0.94523889    -0.15200
C3186       C  0.67867990  0.67136136  0.96963380    -0.30300
H3187       H  0.64715657  0.64211220  0.93228388     0.13900
H3188       H  0.69933727  0.67800356  0.98387853     0.14400
C3189       C  0.70961222  0.79359340  0.95173157    -0.15200
C3190       C  0.68872424  0.79554877  0.97084514    -0.30300
H3191       H  0.71077929  0.77368284  0.95334899     0.13900
H3192       H  0.68677453  0.81500965  0.96922367     0.14400
C3193       C  0.83394433  0.96861056  0.89612612    -0.15200
C3194       C  0.82002256  0.98344445  0.88746742    -0.30300
H3195       H  0.85742793  0.97859244  0.89172624     0.13900
H3196       H  0.80065347  0.46469224  0.85631589     0.14400
C3197       C  0.86545047  0.84046802  0.98159896    -0.15200
C3198       C  0.83949343  0.82397349  0.96445729    -0.30300
H3199       H  0.87992259  0.86694179  0.47078982     0.13900
H3200       H  0.83125612  0.80090232  0.96019512     0.14400
C3201       C  0.71269814  0.90072404  0.63510096    -0.15200
C3202       C  0.71198212  0.92412636  0.62206783    -0.30300
H3203       H  0.69403919  0.87915963  0.63081468     0.13900
H3204       H  0.73118316  0.94545694  0.62570538     0.14400
C3205       C  0.86009901  0.97743821  0.76858024    -0.15200
C3206       C  0.87418038  0.51132136  0.73844760    -0.30300
H3207       H  0.85003208  0.97183044  0.79558526     0.13900
H3208       H  0.86839460  0.51534185  0.71110729     0.14400
C3209       C  0.75161365  0.87303765  0.80469715    -0.15200
C3210       C  0.75659106  0.86099490  0.77498576    -0.30300
H3211       H  0.74884486  0.89191604  0.80102876     0.13900
H3212       H  0.76070213  0.84293739  0.77862803     0.14400
C3213       C  0.79016334  0.89317042  0.53289246    -0.15200
C3214       C  0.81332575  0.90354547  0.55562364    -0.30300
H3215       H  0.76811841  0.88357929  0.54387337     0.13900
H3216       H  0.83535100  0.91287908  0.54464835     0.14400
C3217       C  0.83345386  0.50893209  0.62801775    -0.15200
C3218       C  0.86053048  0.52408403  0.61352317    -0.30300
H3219       H  0.83359136  0.02586511  0.65570363     0.13900
H3220       H  0.87314629  0.51307583  0.60930521     0.14400
C3221       C  0.80322399  0.69389271  0.71053412    -0.15200
C3222       C  0.80271228  0.71450069  0.73143019    -0.30300
H3223       H  0.82281147  0.69180324  0.70958697     0.13900
H3224       H  0.78266580  0.71582125  0.73226898     0.14400
C3225       C  0.89877366  0.78978286  0.64299936    -0.15200
C3226       C  0.90054484  0.81044153  0.62034635    -0.30300
H3227       H  0.89517492  0.76917084  0.63195478     0.13900
H3228       H  0.90363276  0.83080606  0.63165795     0.14400
C3229       C  0.87578710  0.75835047  0.90042245    -0.15200
C3230       C  0.89092745  0.75870474  0.87066541    -0.30300
H3231       H  0.85487490  0.75773483  0.89694407     0.13900
H3232       H  0.91214106  0.75997818  0.87420976     0.14400
C3233       C  0.88292593  0.86634414  0.84236229    -0.15200
C3234       C  0.86329726  0.87450051  0.83235405    -0.30300
H3235       H  0.88676189  0.86480549  0.87148021     0.13900
H3236       H  0.85677940  0.87258556  0.80355640     0.14400
C3237       C  0.83173326  0.83953984  0.71568090    -0.15200
C3238       C  0.84690009  0.86288446  0.69435719    -0.30300
H3239       H  0.80935854  0.83294888  0.72354424     0.13900
H3240       H  0.87024234  0.87143212  0.69018071     0.14400
C3241       C  0.58519798  0.78120845  0.79053850    -0.15200
C3242       C  0.60602701  0.79979405  0.81420405    -0.30300
H3243       H  0.56617402  0.78376775  0.78510999     0.13900
H3244       H  0.62610697  0.79892017  0.81841829     0.14400
C3245       C  0.50535422  0.86151552  0.90154263    -0.15200
C3246       C  0.00293957  0.86924160  0.94106521    -0.30300
H3247       H  0.48657143  0.85073322  0.88303703     0.13900
H3248       H  0.02221660  0.87947145  0.95886405     0.14400
C3249       C  0.63985253  0.97132913  0.86366361    -0.15200
C3250       C  0.66891538  0.98789959  0.86994534    -0.30300
H3251       H  0.62528310  0.97970540  0.87067598     0.13900
H3252       H  0.68521708  0.49101961  0.85727496     0.14400
C3253       C  0.99662452  0.82593847  0.78700233    -0.15200
C3254       C  0.98352210  0.83999995  0.77256134    -0.30300
H3255       H  0.48738933  0.80036289  0.78185419     0.13900
H3256       H  0.99567632  0.86359827  0.77158985     0.14400
C3257       C  0.63268147  0.88446106  0.95508495    -0.15200
C3258       C  0.62024859  0.87046634  0.98632699    -0.30300
H3259       H  0.65151324  0.90620312  0.95721022     0.13900
H3260       H  0.60172319  0.84854201  0.98511225     0.14400
C3261       C  0.62066329  0.89892852  0.72697078    -0.15200
C3262       C  0.60802217  0.91050991  0.70592786    -0.30300
H3263       H  0.63374344  0.89035945  0.71483315     0.13900
H3264       H  0.59437336  0.91837913  0.71818758     0.14400
loop_ 
_geom_bond_atom_site_label_1 
_geom_bond_atom_site_label_2 
_geom_bond_distance 
_geom_bond_site_symmetry_2 
_ccdc_geom_bond_type 
O1          Cr19   2.011       .  S
O1            C9   1.262       .  A
O2          Cr19   1.959       .  S
O2            C3   1.252       .  A
C3            O4   1.264       .  A
C3          C405   1.456       .  S
O4          Cr20   1.989       .  S
O5          Cr20   1.983       .  S
O5            C6   1.267       .  A
C6            O7   1.269       .  A
C6         C2029   1.482   1_455  S
O7          Cr21   2.020       .  S
O8          Cr21   1.970       .  S
O8            C9   1.257       .  A
C9          C386   1.476       .  S
O10         Cr19   1.943       .  S
O10          C18   1.252       .  A
O11         Cr19   2.012       .  S
O11          C12   1.268       .  A
C12          O13   1.261       .  A
C12         C393   1.473       .  S
O13         Cr20   1.975       .  S
O14         Cr20   1.990       .  S
O14          C15   1.257       .  A
C15          O16   1.262       .  A
C15         C389   1.459       .  S
O16         Cr21   1.974       .  S
O17         Cr21   2.038       .  S
O17          C18   1.272       .  A
C18         C401   1.474       .  S
Cr19         O22   1.778       .  S
Cr20         O22   1.775       .  S
Cr21         O22   1.765       .  S
O23         Cr41   2.026       .  S
O23          C31   1.270       .  A
O24         Cr41   1.965       .  S
O24          C25   1.257       .  A
C25          O26   1.269       .  A
C25         C369   1.468       .  S
O26         Cr42   2.000       .  S
O27         Cr42   1.974       .  S
O27          C28   1.257       .  A
C28          O29   1.257       .  A
C28         C381   1.470       .  S
O29         Cr43   1.997       .  S
O30         Cr43   1.971       .  S
O30          C31   1.263       .  A
C31         C366   1.482       .  S
O32         Cr41   1.988       .  S
O32          C40   1.261       .  A
O33         Cr41   2.017       .  S
O33          C34   1.266       .  A
C34          O35   1.257       .  A
C34         C398   1.479       .  S
O35         Cr42   1.969       .  S
O36         Cr42   2.022       .  S
O36          C37   1.270       .  A
C37          O38   1.264       .  A
C37         C377   1.470       .  S
O38         Cr43   1.972       .  S
O39         Cr43   1.995       .  S
O39          C40   1.258       .  A
C40         C374   1.471       .  S
Cr41         O44   1.781       .  S
Cr42         O44   1.774       .  S
Cr43         O44   1.768       .  S
O45         Cr63   1.993       .  S
O45          C53   1.261       .  A
O46         Cr63   2.002       .  S
O46          C47   1.261       .  A
C47          O48   1.258       .  A
C47         C358   1.460       .  S
O48         Cr64   1.971       .  S
O49         Cr64   1.977       .  S
O49          C50   1.262       .  A
C50          O51   1.270       .  A
C50        C1177   1.490       .  S
O51         Cr65   2.013       .  S
O52         Cr65   2.002       .  S
O52          C53   1.264       .  A
C53         C345   1.485       .  S
O54         Cr63   1.999       .  S
O54          C62   1.263       .  A
O55         Cr63   1.977       .  S
O55          C56   1.260       .  A
C56          O57   1.262       .  A
C56         C382   1.472       .  S
O57         Cr64   2.001       .  S
O58         Cr64   2.002       .  S
O58          C59   1.265       .  A
C59          O60   1.261       .  A
C59         C349   1.474       .  S
O60         Cr65   1.978       .  S
O61         Cr65   1.999       .  S
O61          C62   1.265       .  A
C62         C354   1.485       .  S
Cr63         O66   1.783       .  S
Cr64         O66   1.771       .  S
Cr65         O66   1.776       .  S
O67         Cr85   1.992       .  S
O67          C75   1.262       .  A
O68         Cr85   2.004       .  S
O68          C69   1.262       .  A
C69          O70   1.260       .  A
C69         C765   1.467       .  S
O70         Cr86   1.982       .  S
O71         Cr86   1.992       .  S
O71          C72   1.266       .  A
C72          O73   1.269       .  A
C72         C342   1.497       .  S
O73         Cr87   2.014       .  S
O74         Cr87   1.990       .  S
O74          C75   1.260       .  A
C75         C333   1.472       .  S
O76         Cr85   2.002       .  S
O76          C84   1.264       .  A
O77         Cr85   1.979       .  S
O77          C78   1.260       .  A
C78          O79   1.265       .  A
C78         C337   1.474       .  S
O79         Cr86   2.005       .  S
O80         Cr86   2.000       .  S
O80          C81   1.263       .  A
C81          O82   1.260       .  A
C81         C378   1.470       .  S
O82         Cr87   1.977       .  S
O83         Cr87   1.997       .  S
O83          C84   1.265       .  A
C84         C353   1.483       .  S
Cr85         O88   1.784       .  S
Cr86         O88   1.770       .  S
Cr87         O88   1.777       .  S
O89        Cr107   2.021       .  S
O89          C97   1.268       .  A
O90        Cr107   2.008       .  S
O90          C91   1.265       .  A
C91          O92   1.261       .  A
C91         C321   1.474       .  S
O92        Cr108   1.991       .  S
O93        Cr108   1.979       .  S
O93          C94   1.263       .  A
C94          O95   1.264       .  A
C94         C330   1.476       .  S
O95        Cr517   2.007       .  S
O96        Cr517   1.972       .  S
O96          C97   1.262       .  A
C97         C334   1.476       .  S
O98        Cr515   1.988   1_554  S
O98         C106   1.263       .  A
O99        Cr515   2.012   1_554  S
O99         C100   1.266       .  A
C100        O101   1.260       .  A
C100        C325   1.474       .  S
O101       Cr516   1.976   1_554  S
O102       Cr516   2.001   1_554  S
O102        C103   1.261       .  A
C103        O104   1.256       .  A
C103        C313   1.457       .  S
O104       Cr109   1.970       .  S
O105       Cr109   2.017       .  S
O105        C106   1.267       .  A
C106        C318   1.489       .  S
Cr107       O506   1.996       .  S
Cr107       O507   2.025       .  S
Cr107       O518   1.773       .  S
Cr108       O509   1.957       .  S
Cr108       O510   1.990       .  S
Cr108       O518   1.772       .  S
Cr109       O503   2.017   1_554  S
Cr109       O504   1.972   1_554  S
Cr109       O110   1.763       .  S
O110       Cr515   1.774   1_554  S
O110       Cr516   1.775   1_554  S
O111       Cr129   1.976       .  S
O111        C119   1.257       .  A
O112       Cr129   2.013       .  S
O112        C113   1.269       .  A
C113        O114   1.264       .  A
C113        C717   1.479   1_554  S
O114       Cr130   1.976       .  S
O115       Cr130   1.980       .  S
O115        C116   1.259       .  A
C116        O117   1.264       .  A
C116       C1958   1.488       .  S
O117       Cr131   2.009       .  S
O118       Cr131   2.004       .  S
O118        C119   1.266       .  A
C119        C298   1.478       .  S
O120       Cr129   2.005       .  S
O120        C128   1.264       .  A
O121       Cr129   1.986       .  S
O121        C122   1.258       .  A
C122        O123   1.256       .  A
C122        C362   1.471       .  S
O123       Cr130   1.992       .  S
O124       Cr130   1.996       .  S
O124        C125   1.267       .  A
C125        O126   1.266       .  A
C125        C302   1.470       .  S
O126       Cr131   1.999       .  S
O127       Cr131   1.999       .  S
O127        C128   1.264       .  A
C128        C306   1.493       .  S
Cr129       O132   1.784       .  S
Cr130       O132   1.776       .  S
Cr131       O132   1.778       .  S
O133       Cr151   1.979       .  S
O133        C141   1.255       .  A
O134       Cr151   2.025       .  S
O134        C135   1.274       .  A
C135        O136   1.264       .  A
C135        C293   1.477       .  S
O136       Cr152   1.956       .  S
O137       Cr152   1.995       .  S
O137        C138   1.258       .  A
C138        O139   1.260       .  A
C138       C1210   1.490   1_545  S
O139       Cr153   2.006       .  S
O140       Cr153   1.989       .  S
O140        C141   1.261       .  A
C141        C281   1.478       .  S
O142       Cr151   2.019       .  S
O142        C150   1.270       .  A
O143       Cr151   1.985       .  S
O143        C144   1.255       .  A
C144        O145   1.254       .  A
C144        C329   1.476       .  S
O145       Cr152   1.993       .  S
O146       Cr152   1.988       .  S
O146        C147   1.266       .  A
C147        O148   1.269       .  A
C147        C286   1.465       .  S
O148       Cr153   1.989       .  S
O149       Cr153   1.990       .  S
O149        C150   1.263       .  A
C150        C697   1.498       .  S
Cr151       O154   1.788       .  S
Cr152       O154   1.783       .  S
Cr153       O154   1.779       .  S
O155       Cr173   2.012       .  S
O155        C163   1.266       .  A
O156       Cr173   2.001       .  S
O156        C157   1.262       .  A
C157        O158   1.257       .  A
C157        C310   1.465       .  S
O158       Cr174   1.984       .  S
O159       Cr174   1.964       .  S
O159        C160   1.264       .  A
C160        O161   1.270       .  A
C160       C1154   1.474   1_545  S
O161       Cr175   2.022       .  S
O162       Cr175   1.970       .  S
O162        C163   1.257       .  A
C163        C282   1.477       .  S
O164       Cr173   1.982       .  S
O164        C172   1.259       .  A
O165       Cr173   2.010       .  S
O165        C166   1.268       .  A
C166        O167   1.259       .  A
C166        C278   1.454       .  S
O167       Cr174   1.950       .  S
O168       Cr174   1.990       .  S
O168        C169   1.258       .  A
C169        O170   1.257       .  A
C169        C350   1.462       .  S
O170       Cr175   1.982       .  S
O171       Cr175   2.024       .  S
O171        C172   1.269       .  A
C172        C305   1.492       .  S
Cr173       O176   1.775       .  S
Cr174       O176   1.769       .  S
Cr175       O176   1.770       .  S
O177       Cr195   2.025       .  S
O177        C185   1.265       .  A
O178       Cr195   1.960       .  S
O178        C179   1.260       .  A
C179        O180   1.262       .  A
C179        C406   1.451       .  S
O180       Cr196   1.991       .  S
O181       Cr196   1.958       .  S
O181        C182   1.259       .  A
C182        O183   1.271       .  A
C182       C1089   1.480       .  S
O183       Cr197   2.031       .  S
O184       Cr197   1.981       .  S
O184        C185   1.257       .  A
C185        C346   1.483       .  S
O186       Cr195   1.955       .  S
O186        C194   1.255       .  A
O187       Cr195   2.013       .  S
O187        C188   1.267       .  A
C188        O189   1.260       .  A
C188        C269   1.465       .  S
O189       Cr196   1.965       .  S
O190       Cr196   2.015       .  S
O190        C191   1.262       .  A
C191        O192   1.258       .  A
C191        C285   1.473   1_554  S
O192       Cr197   1.976       .  S
O193       Cr197   2.027       .  S
O193        C194   1.274       .  A
C194        C810   1.477   1_554  S
Cr195       O198   1.779       .  S
Cr196       O198   1.771       .  S
Cr197       O198   1.760       .  S
O199       Cr217   1.986       .  S
O199        C207   1.257       .  A
O200       Cr217   2.031       .  S
O200        C201   1.275       .  A
C201        O202   1.265       .  A
C201        C322   1.488       .  S
O202       Cr218   1.969       .  S
O203       Cr218   1.975       .  S
O203        C204   1.257       .  A
C204        O205   1.260       .  A
C204       C1909   1.480   1_455  S
O205       Cr219   2.002       .  S
O206       Cr219   1.983       .  S
O206        C207   1.257       .  A
C207        C385   1.474       .  S
O208       Cr217   2.027       .  S
O208        C216   1.273       .  A
O209       Cr217   1.999       .  S
O209        C210   1.258       .  A
C210        O211   1.253       .  A
C210        C266   1.479       .  S
O211       Cr218   1.987       .  S
O212       Cr218   2.004       .  S
O212        C213   1.270       .  A
C213        O214   1.268       .  A
C213        C301   1.476       .  S
O214       Cr219   1.994       .  S
O215       Cr219   1.968       .  S
O215        C216   1.260       .  A
C216        C317   1.485       .  S
Cr217       O220   1.783       .  S
Cr218       O220   1.773       .  S
Cr219       O220   1.779       .  S
O221       Cr239   2.006       .  S
O221        C229   1.263       .  A
O222       Cr239   1.987       .  S
O222        C223   1.259       .  A
C223        O224   1.255       .  A
C223        C370   1.464       .  S
O224       Cr240   1.987       .  S
O225       Cr240   1.969       .  S
O225        C226   1.265       .  A
C226        O227   1.272       .  A
C226       C1902   1.469       .  S
O227       Cr649   2.019   1_554  S
O228       Cr649   1.975   1_554  S
O228        C229   1.256       .  A
C229        C297   1.479       .  S
O230       Cr647   1.981       .  S
O230        C238   1.262       .  A
O231       Cr647   2.039       .  S
O231        C232   1.272       .  A
C232        O641   1.260       .  A
C232        C341   1.482       .  S
O233       Cr240   1.959   1_556  S
O233        C640   1.262       .  A
O234       Cr648   2.015       .  S
O234        C235   1.264       .  A
C235        O236   1.262       .  A
C235        C390   1.471       .  S
O236       Cr241   1.981       .  S
O237       Cr241   1.994       .  S
O237        C238   1.259       .  A
C238        C373   1.474       .  S
Cr239       O638   1.970   1_554  S
Cr239       O639   2.020       .  S
Cr239       O242   1.782       .  S
Cr240       O642   1.987   1_554  S
Cr240       O242   1.777       .  S
Cr241       O635   1.984       .  S
Cr241       O636   1.949       .  S
Cr241       O650   1.772       .  S
O242       Cr649   1.769   1_554  S
O243       Cr261   2.020       .  S
O243        C251   1.268       .  A
O244       Cr261   1.992       .  S
O244        C245   1.261       .  A
C245        O246   1.259       .  A
C245        C294   1.466       .  S
O246       Cr262   1.992       .  S
O247       Cr262   1.982       .  S
O247        C248   1.266       .  A
C248        O249   1.269       .  A
C248        C265   1.483       .  S
O249       Cr263   2.020       .  S
O250       Cr263   1.963       .  S
O250        C251   1.257       .  A
C251        C365   1.476       .  S
O252       Cr261   1.982       .  S
O252        C260   1.258       .  A
O253       Cr261   2.022       .  S
O253        C254   1.269       .  A
C254        O255   1.262       .  A
C254        C274   1.471       .  S
O255       Cr262   1.963       .  S
O256       Cr262   1.998       .  S
O256        C257   1.261       .  A
C257        O258   1.255       .  A
C257        C314   1.461       .  S
O258       Cr263   1.975       .  S
O259       Cr263   2.008       .  S
O259        C260   1.266       .  A
C260        C290   1.486       .  S
Cr261       O264   1.779       .  S
Cr262       O264   1.771       .  S
Cr263       O264   1.768       .  S
C265        C266   1.342       .  D
C265        H267   1.087       .  S
C266        H268   1.087       .  S
C269        C270   1.341       .  D
C269        H271   1.088       .  S
C270       C1858   1.461   1_455  S
C270       H1904   1.086       .  S
H272       C1902   1.086       .  S
C273        C998   1.487   1_545  S
C273        C274   1.354       .  D
C273        H275   1.086       .  S
C274        H276   1.087       .  S
C277       C1836   1.469       .  S
C277        C278   1.344       .  D
C277       H1911   1.086       .  S
C278        H280   1.087       .  S
H279       C1909   1.086       .  S
C281        C282   1.344       .  D
C281        H283   1.086       .  S
C282        H284   1.088       .  S
C285       C1510   1.352       .  D
C285        H287   1.089       .  S
C286       C1509   1.346   1_545  D
C286        H288   1.086       .  S
C289        C558   1.484   1_554  S
C289        C290   1.346       .  D
C289        H291   1.087       .  S
C290        H292   1.087       .  S
C293        C294   1.343       .  D
C293        H295   1.086       .  S
C294        H296   1.087       .  S
C297        C298   1.344       .  D
C297        H299   1.088       .  S
C298        H300   1.086       .  S
C301       C1934   1.347   1_455  D
C301        H303   1.086       .  S
C302       C1933   1.348       .  D
C302        H304   1.087       .  S
C305        C306   1.348       .  D
C305        H307   1.087       .  S
C306        H308   1.086       .  S
C309        C521   1.479       .  S
C309        C310   1.341       .  D
C309        H311   1.086       .  S
C310        H312   1.087       .  S
C313        C314   1.342       .  D
C313        H315   1.088       .  S
C314        H316   1.088       .  S
C317        C318   1.346       .  D
C317        H319   1.087       .  S
C318        H320   1.086       .  S
C321        C322   1.348       .  D
C321        H323   1.087       .  S
C322        H324   1.086       .  S
C325        C326   1.349       .  D
C325        H327   1.087       .  S
C326       C1748   1.480   1_455  S
C326       H1960   1.086       .  S
H328       C1958   1.086       .  S
C329        C330   1.342       .  D
C329        H331   1.087       .  S
C330        H332   1.087       .  S
C333        C334   1.340       .  D
C333        H335   1.088       .  S
C334        H336   1.086       .  S
C337        C338   1.346       .  D
C337        H339   1.087       .  S
C338        C976   1.478       .  S
C338       H1156   1.086       .  S
H340       C1154   1.086       .  S
C341        C342   1.354       .  D
C341        H751   1.087       .  S
C342        H344   1.086       .  S
H343        C749   1.087       .  S
C345        C346   1.348       .  D
C345        H347   1.086       .  S
C346        H348   1.087       .  S
C349       C1166   1.351       .  D
C349        H351   1.086       .  S
C350       C1165   1.348   1_545  D
C350        H352   1.088       .  S
C353        C354   1.341       .  D
C353        H355   1.087       .  S
C354        H356   1.087       .  S
C357        C477   1.463   1_554  S
C357        C358   1.339       .  D
C357        H359   1.087       .  S
C358        H360   1.087       .  S
C361        C866   1.474   1_545  S
C361        C362   1.340       .  D
C361       H1179   1.087       .  S
C362        H364   1.087       .  S
H363       C1177   1.086       .  S
C365        C366   1.345       .  D
C365        H367   1.087       .  S
C366        H368   1.086       .  S
C369        C370   1.338       .  D
C369        H371   1.087       .  S
C370        H372   1.087       .  S
C373        C374   1.338       .  D
C373        H375   1.087       .  S
C374        H376   1.087       .  S
C377        C378   1.348       .  D
C377        H379   1.089       .  S
C378        H380   1.086       .  S
C381        C382   1.341       .  D
C381        H383   1.087       .  S
C382        H384   1.087       .  S
C385        C386   1.346       .  D
C385        H387   1.088       .  S
C386        H388   1.086       .  S
C389       C2022   1.325       .  D
C389        H391   1.087   1_455  S
C390       C2021   1.333       .  D
C390        H392   1.087       .  S
C393        C394   1.344       .  D
C393        H395   1.087       .  S
C394        C954   1.473       .  S
C394       H1212   1.087       .  S
H396       C1210   1.086       .  S
C397       C1638   1.476       .  S
C397        C398   1.344       .  D
C397       H2031   1.086       .  S
C398        H400   1.088       .  S
H399       C2029   1.086       .  S
C401        C402   1.341       .  D
C401        H403   1.088       .  S
C402        C602   1.483       .  S
C402        H404   1.086       .  S
C405        C406   1.335       .  D
C405        H407   1.087       .  S
C406        H408   1.087       .  S
O409       Cr427   2.008       .  S
O409        C417   1.262       .  A
O410       Cr427   1.966       .  S
O410        C411   1.253       .  A
C411        O412   1.264       .  A
C411        C813   1.462       .  S
O412       Cr428   1.999       .  S
O413       Cr428   1.969       .  S
O413        C414   1.262       .  A
C414        O415   1.269       .  A
C414       C2437   1.470   1_455  S
O415       Cr429   2.017       .  S
O416       Cr429   1.961       .  S
O416        C417   1.254       .  A
C417        C794   1.469       .  S
O418       Cr427   1.952       .  S
O418        C426   1.255       .  A
O419       Cr427   2.022       .  S
O419        C420   1.269       .  A
C420        O421   1.262       .  A
C420        C801   1.471       .  S
O421       Cr428   1.966       .  S
O422       Cr428   2.008       .  S
O422        C423   1.262       .  A
C423        O424   1.262       .  A
C423        C797   1.474       .  S
O424       Cr429   1.983       .  S
O425       Cr429   2.032       .  S
O425        C426   1.274       .  A
C426        C809   1.476       .  S
Cr427       O430   1.778       .  S
Cr428       O430   1.767       .  S
Cr429       O430   1.765       .  S
O431       Cr449   2.016       .  S
O431        C439   1.263       .  A
O432       Cr449   1.999       .  S
O432        C433   1.265       .  A
C433        O434   1.262       .  A
C433        C777   1.475       .  S
O434       Cr450   1.995       .  S
O435       Cr450   1.966       .  S
O435        C436   1.261       .  A
C436        O437   1.268       .  A
C436        C789   1.477       .  S
O437       Cr451   2.019       .  S
O438       Cr451   1.981       .  S
O438        C439   1.259       .  A
C439        C774   1.480       .  S
O440       Cr449   1.982       .  S
O440        C448   1.261       .  A
O441       Cr449   2.012       .  S
O441        C442   1.268       .  A
C442        O443   1.261       .  A
C442        C806   1.468       .  S
O443       Cr450   1.968       .  S
O444       Cr450   2.013       .  S
O444        C445   1.263       .  A
C445        O446   1.259       .  A
C445        C785   1.471       .  S
O446       Cr451   1.977       .  S
O447       Cr451   2.024       .  S
O447        C448   1.271       .  A
C448        C782   1.490       .  S
Cr449       O452   1.775       .  S
Cr450       O452   1.772       .  S
Cr451       O452   1.764       .  S
O453       Cr471   2.001       .  S
O453        C461   1.263       .  A
O454       Cr471   2.007       .  S
O454        C455   1.263       .  A
C455        O456   1.259       .  A
C455        C766   1.471       .  S
O456       Cr472   1.979       .  S
O457       Cr472   1.977       .  S
O457        C458   1.263       .  A
C458        O459   1.268       .  A
C458       C1585   1.482       .  S
O459       Cr473   2.004       .  S
O460       Cr473   1.998       .  S
O460        C461   1.260       .  A
C461        C753   1.473       .  S
O462       Cr471   2.006       .  S
O462        C470   1.265       .  A
O463       Cr471   1.985       .  S
O463        C464   1.261       .  A
C464        O465   1.262       .  A
C464        C790   1.471       .  S
O465       Cr472   1.998       .  S
O466       Cr472   1.998       .  S
O466        C467   1.263       .  A
C467        O468   1.260       .  A
C467        C757   1.468       .  S
O468       Cr473   1.977       .  S
O469       Cr473   1.979       .  S
O469        C470   1.262       .  A
C470        C762   1.477       .  S
Cr471       O474   1.776       .  S
Cr472       O474   1.769       .  S
Cr473       O474   1.777       .  S
O475       Cr493   1.986       .  S
O475        C483   1.261       .  A
O476       Cr493   2.009       .  S
O476        C477   1.264       .  A
C477        O478   1.258       .  A
O478       Cr494   1.968       .  S
O479       Cr494   1.973       .  S
O479        C480   1.261       .  A
C480        O481   1.267       .  A
C480        C750   1.482       .  S
O481       Cr495   2.009       .  S
O482       Cr495   1.988       .  S
O482        C483   1.259       .  A
C483        C741   1.469       .  S
O484       Cr493   1.999       .  S
O484        C492   1.264       .  A
O485       Cr493   1.981       .  S
O485        C486   1.259       .  A
C486        O487   1.261       .  A
C486        C745   1.466       .  S
O487       Cr494   1.993       .  S
O488       Cr494   1.996       .  S
O488        C489   1.264       .  A
C489        O490   1.263       .  A
C489        C786   1.470       .  S
O490       Cr495   1.985       .  S
O491       Cr495   1.987       .  S
O491        C492   1.264       .  A
C492        C761   1.475       .  S
Cr493       O496   1.777       .  S
Cr494       O496   1.766       .  S
Cr495       O496   1.772       .  S
O497       Cr515   2.010       .  S
O497        C505   1.263       .  A
O498       Cr515   2.002       .  S
O498        C499   1.264       .  A
C499        O500   1.264       .  A
C499        C729   1.472       .  S
O500       Cr516   1.998       .  S
O501       Cr516   1.985       .  S
O501        C502   1.264       .  A
C502        O503   1.268       .  A
C502        C738   1.483       .  S
O504        C505   1.259       .  A
C505        C742   1.472       .  S
O506        C514   1.264       .  A
O507        C508   1.269       .  A
C508        O509   1.256       .  A
C508        C733   1.473       .  S
O510        C511   1.260       .  A
C511        O512   1.260       .  A
C511        C721   1.455       .  S
O512       Cr517   1.975       .  S
O513       Cr517   2.005       .  S
O513        C514   1.261       .  A
C514        C726   1.487       .  S
Cr517       O518   1.765       .  S
O519       Cr537   1.961       .  S
O519        C527   1.249       .  A
O520       Cr537   2.018       .  S
O520        C521   1.271       .  A
C521        O522   1.265       .  A
O522       Cr538   1.963       .  S
O523       Cr538   2.010       .  S
O523        C524   1.264       .  A
C524        O525   1.257       .  A
C524       C2366   1.487       .  S
O525       Cr539   1.989       .  S
O526       Cr539   1.994       .  S
O526        C527   1.263       .  A
C527        C706   1.469       .  S
O528       Cr537   2.020       .  S
O528        C536   1.271       .  A
O529       Cr537   1.979       .  S
O529        C530   1.255       .  A
C530        O531   1.260       .  A
C530        C770   1.473       .  S
O531       Cr538   1.999       .  S
O532       Cr538   1.995       .  S
O532        C533   1.266       .  A
C533        O534   1.269       .  A
C533        C710   1.475       .  S
O534       Cr539   2.014       .  S
O535       Cr539   1.967       .  S
O535        C536   1.259       .  A
C536        C714   1.481       .  S
Cr537       O540   1.793       .  S
Cr538       O540   1.772       .  S
Cr539       O540   1.778       .  S
O541       Cr559   2.018       .  S
O541        C549   1.266       .  A
O542       Cr559   1.963       .  S
O542        C543   1.254       .  A
C543        O544   1.273       .  A
C543        C701   1.479       .  S
O544       Cr560   2.026       .  S
O545       Cr560   1.964       .  S
O545        C546   1.257       .  A
C546        O547   1.269       .  A
C546       C1618   1.479   1_545  S
O547       Cr561   2.031       .  S
O548       Cr561   1.966       .  S
O548        C549   1.258       .  A
C549        C689   1.480       .  S
O550       Cr559   1.966       .  S
O550        C558   1.257       .  A
O551       Cr559   2.025       .  S
O551        C552   1.270       .  A
C552        O553   1.259       .  A
C552        C737   1.482       .  S
O553       Cr560   1.972       .  S
O554       Cr560   2.042       .  S
O554        C555   1.272       .  A
C555        O556   1.257       .  A
C555        C694   1.476   1_556  S
O556       Cr561   1.965       .  S
O557       Cr561   2.034       .  S
O557        C558   1.272       .  A
Cr559       O562   1.778       .  S
Cr560       O562   1.774       .  S
Cr561       O562   1.767       .  S
O563       Cr581   2.018       .  S
O563        C571   1.269       .  A
O564       Cr581   1.993       .  S
O564        C565   1.263       .  A
C565        O566   1.262       .  A
C565        C718   1.473       .  S
O566       Cr582   1.999       .  S
O567       Cr582   1.977       .  S
O567        C568   1.265       .  A
C568        O569   1.262       .  A
C568       C1562   1.468   1_545  S
O569       Cr583   1.998       .  S
O570       Cr583   1.962       .  S
O570        C571   1.258       .  A
C571        C690   1.473       .  S
O572       Cr581   1.993       .  S
O572        C580   1.261       .  A
O573       Cr581   2.012       .  S
O573        C574   1.267       .  A
C574        O575   1.260       .  A
C574        C686   1.466       .  S
O575       Cr582   1.963       .  S
O576       Cr582   2.006       .  S
O576        C577   1.263       .  A
C577        O578   1.260       .  A
C577        C758   1.466       .  S
O578       Cr583   1.978       .  S
O579       Cr583   2.000       .  S
O579        C580   1.260       .  A
C580        C713   1.483       .  S
Cr581       O584   1.774       .  S
Cr582       O584   1.769       .  S
Cr583       O584   1.768       .  S
O585       Cr603   1.979       .  S
O585        C593   1.256       .  A
O586       Cr603   2.005       .  S
O586        C587   1.271       .  A
C587        O588   1.257       .  A
C587        C814   1.458       .  S
O588       Cr604   1.952       .  S
O589       Cr604   1.976       .  S
O589        C590   1.260       .  A
C590        O591   1.266       .  A
C590       C1497   1.484       .  S
O591       Cr605   2.013       .  S
O592       Cr605   2.005       .  S
O592        C593   1.260       .  A
C593        C754   1.483       .  S
O594       Cr603   2.013       .  S
O594        C602   1.268       .  A
O595       Cr603   1.971       .  S
O595        C596   1.256       .  A
C596        O597   1.253       .  A
C596        C677   1.468       .  S
O597       Cr604   1.986       .  S
O598       Cr604   1.984       .  S
O598        C599   1.261       .  A
C599        O600   1.268       .  A
C599        C693   1.468       .  S
O600       Cr605   2.007       .  S
O601       Cr605   1.970       .  S
O601        C602   1.265       .  A
Cr603       O606   1.777       .  S
Cr604       O606   1.779       .  S
Cr605       O606   1.776       .  S
O607       Cr625   1.962       .  S
O607        C615   1.253       .  A
O608       Cr625   2.036       .  S
O608        C609   1.276       .  A
C609        O610   1.262       .  A
C609        C730   1.486       .  S
O610       Cr626   1.957       .  S
O611       Cr626   1.992       .  S
O611        C612   1.261       .  A
C612        O613   1.257       .  A
C612       C2317   1.475   1_455  S
O613       Cr627   1.985       .  S
O614       Cr627   1.996       .  S
O614        C615   1.261       .  A
C615        C793   1.469       .  S
O616       Cr625   2.033       .  S
O616        C624   1.274       .  A
O617       Cr625   1.977       .  S
O617        C618   1.254       .  A
C618        O619   1.256       .  A
C618        C674   1.467       .  S
O619       Cr626   1.992       .  S
O620       Cr626   1.987       .  S
O620        C621   1.265       .  A
C621        O622   1.269       .  A
C621        C709   1.466       .  S
O622       Cr627   2.004       .  S
O623       Cr627   1.957       .  S
O623        C624   1.257       .  A
C624        C725   1.483       .  S
Cr625       O628   1.784       .  S
Cr626       O628   1.773       .  S
Cr627       O628   1.777       .  S
O629       Cr647   2.021       .  S
O629        C637   1.271       .  A
O630       Cr647   1.979       .  S
O630        C631   1.256       .  A
C631        O632   1.266       .  A
C631        C778   1.480       .  S
O632       Cr648   2.004       .  S
O633       Cr648   1.972       .  S
O633        C634   1.260       .  A
C634        O635   1.260       .  A
C634       C2310   1.451       .  S
O636        C637   1.253       .  A
C637        C705   1.467       .  S
O638        C646   1.259       .  A
O639        C640   1.270   1_554  A
C640        C749   1.464       .  S
O641       Cr648   1.963       .  S
O642        C643   1.252       .  A
C643        O644   1.259       .  A
C643        C798   1.463       .  S
O644       Cr649   1.987       .  S
O645       Cr649   2.026       .  S
O645        C646   1.272       .  A
C646        C781   1.487       .  S
Cr647       O650   1.781       .  S
Cr648       O650   1.771       .  S
O651       Cr669   1.993       .  S
O651        C659   1.258       .  A
O652       Cr669   2.045       .  S
O652        C653   1.278       .  A
C653        O654   1.253       .  A
C653        C702   1.471       .  S
O654       Cr670   1.938       .  S
O655       Cr670   1.993       .  S
O655        C656   1.265       .  A
C656        O657   1.262       .  A
C656        C673   1.474       .  S
O657       Cr671   1.989       .  S
O658       Cr671   1.991       .  S
O658        C659   1.259       .  A
C659        C773   1.479       .  S
O660       Cr669   2.044       .  S
O660        C668   1.277       .  A
O661       Cr669   1.978       .  S
O661        C662   1.254       .  A
C662        O663   1.257       .  A
C662        C682   1.468       .  S
O663       Cr670   1.991       .  S
O664       Cr670   1.975       .  S
O664        C665   1.256       .  A
C665        O666   1.264       .  A
C665        C722   1.455       .  S
O666       Cr671   1.982       .  S
O667       Cr671   1.963       .  S
O667        C668   1.258       .  A
C668        C698   1.490       .  S
Cr669       O672   1.779       .  S
Cr670       O672   1.779       .  S
Cr671       O672   1.778       .  S
C673        C674   1.344       .  D
C673        H675   1.086       .  S
C674        H676   1.088       .  S
C677        C678   1.337       .  D
C677        H679   1.088       .  S
C678       C2266   1.460   1_455  S
C678       H2312   1.087       .  S
H680       C2310   1.087       .  S
C681       C1406   1.475   1_545  S
C681        C682   1.346       .  D
C681        H683   1.086       .  S
C682        H684   1.087       .  S
C685       C2244   1.477       .  S
C685        C686   1.348       .  D
C685       H2319   1.086       .  S
C686        H688   1.087       .  S
H687       C2317   1.086       .  S
C689        C690   1.345       .  D
C689        H691   1.086       .  S
C690        H692   1.087       .  S
C693       C1102   1.343       .  D
C693        H695   1.087       .  S
C694       C1101   1.348   1_544  D
C694        H696   1.088       .  S
C697        C698   1.349       .  D
C697        H699   1.087       .  S
C698        H700   1.087       .  S
C701        C702   1.333       .  D
C701        H703   1.087       .  S
C702        H704   1.087       .  S
C705        C706   1.337       .  D
C705        H707   1.088       .  S
C706        H708   1.086       .  S
C709       C2342   1.344   1_455  D
C709        H711   1.087       .  S
C710       C2341   1.348       .  D
C710        H712   1.087       .  S
C713        C714   1.344       .  D
C713        H715   1.087       .  S
C714        H716   1.087       .  S
C717        C718   1.341       .  D
C717        H719   1.087       .  S
C718        H720   1.087       .  S
C721        C722   1.343       .  D
C721        H723   1.089       .  S
C722        H724   1.087       .  S
C725        C726   1.342       .  D
C725        H727   1.087       .  S
C726        H728   1.087       .  S
C729        C730   1.349       .  D
C729        H731   1.087       .  S
C730        H732   1.086       .  S
C733        C734   1.347       .  D
C733        H735   1.087       .  S
C734       C2156   1.485   1_455  S
C734       H2368   1.086       .  S
H736       C2366   1.086       .  S
C737        C738   1.346       .  D
C737        H739   1.087       .  S
C738        H740   1.087       .  S
C741        C742   1.339       .  D
C741        H743   1.088       .  S
C742        H744   1.087       .  S
C745        C746   1.344       .  D
C745        H747   1.087       .  S
C746       C1384   1.475       .  S
C746       H1564   1.086       .  S
H748       C1562   1.087       .  S
C749        C750   1.351       .  D
C750        H752   1.086       .  S
C753        C754   1.345       .  D
C753        H755   1.086       .  S
C754        H756   1.087       .  S
C757       C1574   1.349       .  D
C757        H759   1.086       .  S
C758       C1573   1.349   1_545  D
C758        H760   1.089       .  S
C761        C762   1.339       .  D
C761        H763   1.087       .  S
C762        H764   1.087       .  S
C765        C766   1.339       .  D
C765        H767   1.087       .  S
C766        H768   1.087       .  S
C769       C1274   1.485   1_545  S
C769        C770   1.353       .  D
C769       H1587   1.086       .  S
C770        H772   1.087       .  S
H771       C1585   1.086       .  S
C773        C774   1.345       .  D
C773        H775   1.088       .  S
C774        H776   1.086       .  S
C777        C778   1.342       .  D
C777        H779   1.087       .  S
C778        H780   1.086       .  S
C781        C782   1.347       .  D
C781        H783   1.087       .  S
C782        H784   1.087       .  S
C785        C786   1.349       .  D
C785        H787   1.089       .  S
C786        H788   1.086       .  S
C789        C790   1.343       .  D
C789        H791   1.087       .  S
C790        H792   1.087       .  S
C793        C794   1.347       .  D
C793        H795   1.087       .  S
C794        H796   1.086       .  S
C797       C2430   1.333       .  D
C797        H799   1.087   1_455  S
C798       C2429   1.328       .  D
C798        H800   1.087       .  S
C801        C802   1.351       .  D
C801        H803   1.087       .  S
C802       C1362   1.483       .  S
C802       H1620   1.086       .  S
H804       C1618   1.086       .  S
C805       C2046   1.468       .  S
C805        C806   1.344       .  D
C805       H2439   1.086       .  S
C806        H808   1.088       .  S
H807       C2437   1.087       .  S
C809        C810   1.338       .  D
C809        H811   1.087       .  S
C810        H812   1.087       .  S
C813        C814   1.335       .  D
C813        H815   1.087       .  S
C814        H816   1.087       .  S
O817       Cr835   2.021       .  S
O817        C825   1.265       .  A
O818       Cr835   1.979       .  S
O818        C819   1.256       .  A
C819        O820   1.260       .  A
C819       C1221   1.465       .  S
O820       Cr836   1.985       .  S
O821       Cr836   1.979       .  S
O821        C822   1.266       .  A
C822        O823   1.269       .  A
C822       C2845   1.476   1_455  S
O823       Cr837   2.018       .  S
O824       Cr837   1.977       .  S
O824        C825   1.258       .  A
C825       C1202   1.485       .  S
O826       Cr835   1.964       .  S
O826        C834   1.257       .  A
O827       Cr835   2.034       .  S
O827        C828   1.273       .  A
C828        O829   1.262       .  A
C828       C1209   1.481       .  S
O829       Cr836   1.967       .  S
O830       Cr836   1.984       .  S
O830        C831   1.254       .  A
C831        O832   1.261       .  A
C831       C1205   1.460       .  S
O832       Cr837   1.986       .  S
O833       Cr837   2.030       .  S
O833        C834   1.272       .  A
C834       C1217   1.484       .  S
Cr835       O838   1.782       .  S
Cr836       O838   1.775       .  S
Cr837       O838   1.767       .  S
O839       Cr857   2.025       .  S
O839        C847   1.269       .  A
O840       Cr857   1.969       .  S
O840        C841   1.257       .  A
C841        O842   1.270       .  A
C841       C1185   1.475       .  S
O842       Cr858   2.008       .  S
O843       Cr858   1.974       .  S
O843        C844   1.256       .  A
C844        O845   1.261       .  A
C844       C1197   1.479       .  S
O845       Cr859   2.012       .  S
O846       Cr859   1.969       .  S
O846        C847   1.263       .  A
C847       C1182   1.484       .  S
O848       Cr857   1.985       .  S
O848        C856   1.260       .  A
O849       Cr857   2.018       .  S
O849        C850   1.266       .  A
C850        O851   1.258       .  A
C850       C1214   1.484       .  S
O851       Cr858   1.975       .  S
O852       Cr858   2.032       .  S
O852        C853   1.271       .  A
C853        O854   1.261       .  A
C853       C1193   1.472       .  S
O854       Cr859   1.967       .  S
O855       Cr859   2.006       .  S
O855        C856   1.262       .  A
C856       C1190   1.478       .  S
Cr857       O860   1.784       .  S
Cr858       O860   1.776       .  S
Cr859       O860   1.769       .  S
O861       Cr879   2.035       .  S
O861        C869   1.271       .  A
O862       Cr879   1.981       .  S
O862        C863   1.257       .  A
C863        O864   1.255       .  A
C863       C1174   1.459       .  S
O864       Cr880   1.986       .  S
O865       Cr880   1.974       .  S
O865        C866   1.267       .  A
C866        O867   1.270       .  A
O867       Cr881   2.018       .  S
O868       Cr881   1.959       .  S
O868        C869   1.253       .  A
C869       C1161   1.483       .  S
O870       Cr879   1.961       .  S
O870        C878   1.253       .  A
O871       Cr879   2.032       .  S
O871        C872   1.275       .  A
C872        O873   1.263       .  A
C872       C1198   1.473       .  S
O873       Cr880   1.964       .  S
O874       Cr880   1.995       .  S
O874        C875   1.258       .  A
C875        O876   1.254       .  A
C875       C1165   1.460       .  S
O876       Cr881   1.975       .  S
O877       Cr881   2.017       .  S
O877        C878   1.267       .  A
C878       C1170   1.479       .  S
Cr879       O882   1.774       .  S
Cr880       O882   1.774       .  S
Cr881       O882   1.770       .  S
O883       Cr901   1.989       .  S
O883        C891   1.262       .  A
O884       Cr901   2.001       .  S
O884        C885   1.262       .  A
C885        O886   1.260       .  A
C885       C1581   1.459       .  S
O886       Cr902   1.974       .  S
O887       Cr902   1.989       .  S
O887        C888   1.263       .  A
C888        O889   1.267       .  A
C888       C1158   1.490       .  S
O889       Cr903   2.009       .  S
O890       Cr903   1.992       .  S
O890        C891   1.261       .  A
C891       C1149   1.472       .  S
O892       Cr901   1.999       .  S
O892        C900   1.262       .  A
O893       Cr901   1.983       .  S
O893        C894   1.260       .  A
C894        O895   1.261       .  A
C894       C1153   1.468       .  S
O895       Cr902   1.996       .  S
O896       Cr902   1.999       .  S
O896        C897   1.264       .  A
C897        O898   1.263       .  A
C897       C1194   1.473       .  S
O898       Cr903   1.988       .  S
O899       Cr903   1.989       .  S
O899        C900   1.265       .  A
C900       C1169   1.481       .  S
Cr901       O904   1.783       .  S
Cr902       O904   1.768       .  S
Cr903       O904   1.771       .  S
O905       Cr923   2.024       .  S
O905        C913   1.269       .  A
O906       Cr923   1.984       .  S
O906        C907   1.261       .  A
C907        O908   1.267       .  A
C907       C1137   1.478       .  S
O908       Cr924   1.997       .  S
O909       Cr924   1.991       .  S
O909        C910   1.263       .  A
C910        O911   1.264       .  A
C910       C1146   1.491       .  S
O911      Cr1333   2.017       .  S
O912      Cr1333   1.970       .  S
O912        C913   1.262       .  A
C913       C1150   1.477       .  S
O914      Cr1331   1.972   1_554  S
O914        C922   1.259       .  A
O915      Cr1331   2.011       .  S
O915        C916   1.266   1_556  A
C916        O917   1.261       .  A
C916       C1141   1.466       .  S
O917      Cr1332   1.966   1_554  S
O918      Cr1332   1.992   1_554  S
O918        C919   1.258       .  A
C919        O920   1.255       .  A
C919       C1129   1.458       .  S
O920       Cr925   1.975       .  S
O921       Cr925   2.029       .  S
O921        C922   1.271       .  A
C922       C1134   1.487       .  S
Cr923      O1322   1.997       .  S
Cr923      O1323   2.026       .  S
Cr923      O1334   1.780       .  S
Cr924      O1325   1.972       .  S
Cr924      O1326   2.001       .  S
Cr924      O1334   1.774       .  S
Cr925      O1319   2.026       .  S
Cr925      O1320   1.976   1_554  S
Cr925       O926   1.767       .  S
O926      Cr1331   1.778   1_554  S
O926      Cr1332   1.772   1_554  S
O927       Cr945   2.010       .  S
O927        C935   1.262       .  A
O928       Cr945   1.967       .  S
O928        C929   1.257       .  A
C929        O930   1.269       .  A
C929       C1533   1.470   1_554  S
O930       Cr946   2.006       .  S
O931       Cr946   1.978       .  S
O931        C932   1.261       .  A
C932        O933   1.271       .  A
C932       C2774   1.490       .  S
O933       Cr947   2.033       .  S
O934       Cr947   1.968       .  S
O934        C935   1.258       .  A
C935       C1114   1.475       .  S
O936       Cr945   1.963       .  S
O936        C944   1.257       .  A
O937       Cr945   2.016       .  S
O937        C938   1.265       .  A
C938        O939   1.262       .  A
C938       C1178   1.474       .  S
O939       Cr946   1.972       .  S
O940       Cr946   2.026       .  S
O940        C941   1.266       .  A
C941        O942   1.257       .  A
C941       C1118   1.471       .  S
O942       Cr947   1.968       .  S
O943       Cr947   2.034       .  S
O943        C944   1.273       .  A
C944       C1122   1.482       .  S
Cr945       O948   1.784       .  S
Cr946       O948   1.773       .  S
Cr947       O948   1.764       .  S
O949       Cr967   2.040       .  S
O949        C957   1.277       .  A
O950       Cr967   1.984       .  S
O950        C951   1.259       .  A
C951        O952   1.268       .  A
C951       C1109   1.490       .  S
O952       Cr968   2.012       .  S
O953       Cr968   1.974       .  S
O953        C954   1.257       .  A
C954        O955   1.263       .  A
O955       Cr969   2.012       .  S
O956       Cr969   1.949       .  S
O956        C957   1.256       .  A
C957       C1097   1.477       .  S
O958       Cr967   2.004       .  S
O958        C966   1.261       .  A
O959       Cr967   2.038       .  S
O959        C960   1.273       .  A
C960        O961   1.259       .  A
C960       C1145   1.488       .  S
O961       Cr968   1.967       .  S
O962       Cr968   2.031       .  S
O962        C963   1.270       .  A
C963        O964   1.257       .  A
C963       C1102   1.466       .  S
O964       Cr969   1.962       .  S
O965       Cr969   2.006       .  S
O965        C966   1.260       .  A
C966       C1513   1.492       .  S
Cr967       O970   1.781       .  S
Cr968       O970   1.780       .  S
Cr969       O970   1.774       .  S
O971       Cr989   1.999       .  S
O971        C979   1.259       .  A
O972       Cr989   1.979       .  S
O972        C973   1.262       .  A
C973        O974   1.261       .  A
C973       C1126   1.456       .  S
O974       Cr990   1.996       .  S
O975       Cr990   1.963       .  S
O975        C976   1.261       .  A
C976        O977   1.270       .  A
O977       Cr991   2.023       .  S
O978       Cr991   1.992       .  S
O978        C979   1.263       .  A
C979       C1098   1.481       .  S
O980       Cr989   1.968       .  S
O980        C988   1.258       .  A
O981       Cr989   1.993       .  S
O981        C982   1.262       .  A
C982        O983   1.258       .  A
C982       C1094   1.448       .  S
O983       Cr990   1.956       .  S
O984       Cr990   2.009       .  S
O984        C985   1.261       .  A
C985        O986   1.259       .  A
C985       C1166   1.470       .  S
O986       Cr991   1.979       .  S
O987       Cr991   2.023       .  S
O987        C988   1.273       .  A
C988       C1121   1.482       .  S
Cr989       O992   1.777       .  S
Cr990       O992   1.772       .  S
Cr991       O992   1.759       .  S
O993      Cr1011   1.971       .  S
O993       C1001   1.252       .  A
O994      Cr1011   2.002       .  S
O994        C995   1.271       .  A
C995        O996   1.260       .  A
C995       C1222   1.456       .  S
O996      Cr1012   1.955       .  S
O997      Cr1012   1.972       .  S
O997        C998   1.256       .  A
C998        O999   1.266       .  A
O999      Cr1013   2.020       .  S
O1000     Cr1013   2.012       .  S
O1000      C1001   1.264       .  A
C1001      C1162   1.486       .  S
O1002     Cr1011   1.999       .  S
O1002      C1010   1.265       .  A
O1003     Cr1011   1.965       .  S
O1003      C1004   1.251       .  A
C1004      O1005   1.251       .  A
C1004      C1085   1.463       .  S
O1005     Cr1012   1.981       .  S
O1006     Cr1012   1.991       .  S
O1006      C1007   1.266       .  A
C1007      O1008   1.271       .  A
C1007      C1101   1.478   1_554  S
O1008     Cr1013   2.018       .  S
O1009     Cr1013   1.986       .  S
O1009      C1010   1.268       .  A
C1010      C1626   1.487   1_554  S
Cr1011     O1014   1.789       .  S
Cr1012     O1014   1.786       .  S
Cr1013     O1014   1.778       .  S
O1015     Cr1033   1.988       .  S
O1015      C1023   1.255       .  A
O1016     Cr1033   2.018       .  S
O1016      C1017   1.271       .  A
C1017      O1018   1.257       .  A
C1017      C1138   1.467       .  S
O1018     Cr1034   1.955       .  S
O1019     Cr1034   1.974       .  S
O1019      C1020   1.261       .  A
C1020      O1021   1.263       .  A
C1020      C2725   1.475   1_455  S
O1021     Cr1035   2.000       .  S
O1022     Cr1035   2.000       .  S
O1022      C1023   1.260       .  A
C1023      C1201   1.483       .  S
O1024     Cr1033   2.025       .  S
O1024      C1032   1.273       .  A
O1025     Cr1033   1.985       .  S
O1025      C1026   1.258       .  A
C1026      O1027   1.255       .  A
C1026      C1082   1.472       .  S
O1027     Cr1034   1.983       .  S
O1028     Cr1034   1.992       .  S
O1028      C1029   1.263       .  A
C1029      O1030   1.265       .  A
C1029      C1117   1.473       .  S
O1030     Cr1035   2.009       .  S
O1031     Cr1035   1.980       .  S
O1031      C1032   1.266       .  A
C1032      C1133   1.492       .  S
Cr1033     O1036   1.783       .  S
Cr1034     O1036   1.780       .  S
Cr1035     O1036   1.779       .  S
O1037     Cr1055   2.002       .  S
O1037      C1045   1.263       .  A
O1038     Cr1055   2.000       .  S
O1038      C1039   1.258       .  A
C1039      O1040   1.253       .  A
C1039      C1186   1.472       .  S
O1040     Cr1056   1.988       .  S
O1041     Cr1056   1.971       .  S
O1041      C1042   1.267       .  A
C1042      O1043   1.270       .  A
C1042      C2718   1.462       .  S
O1043     Cr1465   2.007   1_554  S
O1044     Cr1465   1.958   1_554  S
O1044      C1045   1.253       .  A
C1045      C1113   1.470       .  S
O1046     Cr1463   1.980       .  S
O1046      C1054   1.261       .  A
O1047     Cr1463   2.026       .  S
O1047      C1048   1.269       .  A
C1048      O1457   1.262       .  A
C1048      C1157   1.478       .  S
O1049     Cr1056   1.958   1_556  S
O1049      C1456   1.265       .  A
O1050     Cr1464   2.008       .  S
O1050      C1051   1.261       .  A
C1051      O1052   1.260       .  A
C1051      C1206   1.465       .  S
O1052     Cr1057   1.977       .  S
O1053     Cr1057   2.007       .  S
O1053      C1054   1.264       .  A
C1054      C1189   1.480       .  S
Cr1055     O1454   1.982   1_554  S
Cr1055     O1455   2.026       .  S
Cr1055     O1058   1.782       .  S
Cr1056     O1458   1.995   1_554  S
Cr1056     O1058   1.778       .  S
Cr1057     O1451   2.000       .  S
Cr1057     O1452   1.962       .  S
Cr1057     O1466   1.768       .  S
O1058     Cr1465   1.770   1_554  S
O1059     Cr1077   2.031       .  S
O1059      C1067   1.272       .  A
O1060     Cr1077   2.013       .  S
O1060      C1061   1.266       .  A
C1061      O1062   1.260       .  A
C1061      C1110   1.485       .  S
O1062     Cr1078   1.993       .  S
O1063     Cr1078   1.977       .  S
O1063      C1064   1.264       .  A
C1064      O1065   1.264       .  A
C1064      C1081   1.472       .  S
O1065     Cr1079   2.006       .  S
O1066     Cr1079   1.954       .  S
O1066      C1067   1.256       .  A
C1067      C1181   1.475       .  S
O1068     Cr1077   2.011       .  S
O1068      C1076   1.264       .  A
O1069     Cr1077   2.020       .  S
O1069      C1070   1.270       .  A
C1070      O1071   1.259       .  A
C1070      C1090   1.471       .  S
O1071     Cr1078   1.964       .  S
O1072     Cr1078   1.996       .  S
O1072      C1073   1.261       .  A
C1073      O1074   1.258       .  A
C1073      C1130   1.460       .  S
O1074     Cr1079   1.976       .  S
O1075     Cr1079   2.003       .  S
O1075      C1076   1.261       .  A
C1076      C1106   1.495       .  S
Cr1077     O1080   1.776       .  S
Cr1078     O1080   1.772       .  S
Cr1079     O1080   1.772       .  S
C1081      C1082   1.340       .  D
C1081      H1083   1.087       .  S
C1082      H1084   1.087       .  S
C1085      C1086   1.338       .  D
C1085      H1087   1.088       .  S
C1086      C2674   1.457   1_455  S
C1086      H2720   1.087       .  S
H1088      C2718   1.087       .  S
C1089      C1090   1.347       .  D
C1089      H1091   1.086       .  S
C1090      H1092   1.087       .  S
C1093      C2652   1.467       .  S
C1093      C1094   1.348       .  D
C1093      H2727   1.086       .  S
C1094      H1096   1.087       .  S
H1095      C2725   1.086       .  S
C1097      C1098   1.339       .  D
C1097      H1099   1.088       .  S
C1098      H1100   1.086       .  S
C1101      H1103   1.087       .  S
C1102      H1104   1.089       .  S
C1105      C1374   1.495   1_554  S
C1105      C1106   1.348       .  D
C1105      H1107   1.087       .  S
C1106      H1108   1.086       .  S
C1109      C1110   1.345       .  D
C1109      H1111   1.086       .  S
C1110      H1112   1.087       .  S
C1113      C1114   1.343       .  D
C1113      H1115   1.088       .  S
C1114      H1116   1.086       .  S
C1117      C2750   1.351   1_455  D
C1117      H1119   1.087       .  S
C1118      C2749   1.348       .  D
C1118      H1120   1.089       .  S
C1121      C1122   1.342       .  D
C1121      H1123   1.087       .  S
C1122      H1124   1.087       .  S
C1125      C1337   1.466       .  S
C1125      C1126   1.337       .  D
C1125      H1127   1.087       .  S
C1126      H1128   1.087       .  S
C1129      C1130   1.346       .  D
C1129      H1131   1.088       .  S
C1130      H1132   1.088       .  S
C1133      C1134   1.348       .  D
C1133      H1135   1.086       .  S
C1134      H1136   1.087       .  S
C1137      C1138   1.342       .  D
C1137      H1139   1.087       .  S
C1138      H1140   1.087       .  S
C1141      C1142   1.353       .  D
C1141      H1143   1.087       .  S
C1142      C2564   1.483   1_455  S
C1142      H2776   1.086       .  S
H1144      C2774   1.087       .  S
C1145      C1146   1.346       .  D
C1145      H1147   1.087       .  S
C1146      H1148   1.086       .  S
C1149      C1150   1.342       .  D
C1149      H1151   1.088       .  S
C1150      H1152   1.086       .  S
C1153      C1154   1.342       .  D
C1153      H1155   1.087       .  S
C1157      C1158   1.353       .  D
C1157      H1567   1.087       .  S
C1158      H1160   1.086       .  S
H1159      C1565   1.087       .  S
C1161      C1162   1.339       .  D
C1161      H1163   1.088       .  S
C1162      H1164   1.086       .  S
C1165      H1167   1.087       .  S
C1166      H1168   1.089       .  S
C1169      C1170   1.339       .  D
C1169      H1171   1.086       .  S
C1170      H1172   1.087       .  S
C1173      C1293   1.466   1_554  S
C1173      C1174   1.336       .  D
C1173      H1175   1.087       .  S
C1174      H1176   1.087       .  S
C1177      C1178   1.355       .  D
C1178      H1180   1.087       .  S
C1181      C1182   1.344       .  D
C1181      H1183   1.087       .  S
C1182      H1184   1.086       .  S
C1185      C1186   1.341       .  D
C1185      H1187   1.087       .  S
C1186      H1188   1.087       .  S
C1189      C1190   1.344       .  D
C1189      H1191   1.087       .  S
C1190      H1192   1.087       .  S
C1193      C1194   1.345       .  D
C1193      H1195   1.089       .  S
C1194      H1196   1.086       .  S
C1197      C1198   1.344       .  D
C1197      H1199   1.087       .  S
C1198      H1200   1.087       .  S
C1201      C1202   1.350       .  D
C1201      H1203   1.087       .  S
C1202      H1204   1.086       .  S
C1205      C2838   1.327       .  D
C1205      H1207   1.088   1_455  S
C1206      C2837   1.330       .  D
C1206      H1208   1.087       .  S
C1209      C1210   1.352       .  D
C1209      H1211   1.087       .  S
C1213      C2454   1.484       .  S
C1213      C1214   1.347       .  D
C1213      H2847   1.086       .  S
C1214      H1216   1.087       .  S
H1215      C2845   1.086       .  S
C1217      C1218   1.343       .  D
C1217      H1219   1.087       .  S
C1218      C1418   1.485       .  S
C1218      H1220   1.087       .  S
C1221      C1222   1.340       .  D
C1221      H1223   1.087       .  S
C1222      H1224   1.087       .  S
O1225     Cr1243   2.010       .  S
O1225      C1233   1.263       .  A
O1226     Cr1243   1.962       .  S
O1226      C1227   1.251       .  A
C1227      O1228   1.264       .  A
C1227      C1629   1.465       .  S
O1228     Cr1244   2.000       .  S
O1229     Cr1244   1.979       .  S
O1229      C1230   1.266       .  A
C1230      O1231   1.270       .  A
C1230      C3253   1.477   1_455  S
O1231     Cr1245   2.019       .  S
O1232     Cr1245   1.970       .  S
O1232      C1233   1.256       .  A
C1233      C1610   1.485       .  S
O1234     Cr1243   1.947       .  S
O1234      C1242   1.253       .  A
O1235     Cr1243   2.018       .  S
O1235      C1236   1.270       .  A
C1236      O1237   1.264       .  A
C1236      C1617   1.478       .  S
O1237     Cr1244   1.979       .  S
O1238     Cr1244   2.000       .  S
O1238      C1239   1.258       .  A
C1239      O1240   1.262       .  A
C1239      C1613   1.472       .  S
O1240     Cr1245   1.986       .  S
O1241     Cr1245   2.042       .  S
O1241      C1242   1.274       .  A
C1242      C1625   1.479       .  S
Cr1243     O1246   1.781       .  S
Cr1244     O1246   1.777       .  S
Cr1245     O1246   1.774       .  S
O1247     Cr1265   2.007       .  S
O1247      C1255   1.261       .  A
O1248     Cr1265   1.987       .  S
O1248      C1249   1.263       .  A
C1249      O1250   1.266       .  A
C1249      C1593   1.476       .  S
O1250     Cr1266   2.005       .  S
O1251     Cr1266   1.968       .  S
O1251      C1252   1.261       .  A
C1252      O1253   1.267       .  A
C1252      C1605   1.477       .  S
O1253     Cr1267   2.017       .  S
O1254     Cr1267   1.975       .  S
O1254      C1255   1.259       .  A
C1255      C1590   1.477       .  S
O1256     Cr1265   1.977       .  S
O1256      C1264   1.261       .  A
O1257     Cr1265   2.006       .  S
O1257      C1258   1.265       .  A
C1258      O1259   1.263       .  A
C1258      C1622   1.472       .  S
O1259     Cr1266   1.979       .  S
O1260     Cr1266   2.018       .  S
O1260      C1261   1.264       .  A
C1261      O1262   1.258       .  A
C1261      C1601   1.473       .  S
O1262     Cr1267   1.974       .  S
O1263     Cr1267   2.020       .  S
O1263      C1264   1.270       .  A
C1264      C1598   1.484       .  S
Cr1265     O1268   1.776       .  S
Cr1266     O1268   1.771       .  S
Cr1267     O1268   1.766       .  S
O1269     Cr1287   1.994       .  S
O1269      C1277   1.264       .  A
O1270     Cr1287   2.005       .  S
O1270      C1271   1.262       .  A
C1271      O1272   1.258       .  A
C1271      C1582   1.460       .  S
O1272     Cr1288   1.968       .  S
O1273     Cr1288   1.975       .  S
O1273      C1274   1.260       .  A
C1274      O1275   1.268       .  A
O1275     Cr1289   2.006       .  S
O1276     Cr1289   2.007       .  S
O1276      C1277   1.268       .  A
C1277      C1569   1.487       .  S
O1278     Cr1287   1.995       .  S
O1278      C1286   1.261       .  A
O1279     Cr1287   1.985       .  S
O1279      C1280   1.260       .  A
C1280      O1281   1.261       .  A
C1280      C1606   1.471       .  S
O1281     Cr1288   1.999       .  S
O1282     Cr1288   1.990       .  S
O1282      C1283   1.263       .  A
C1283      O1284   1.263       .  A
C1283      C1573   1.466       .  S
O1284     Cr1289   1.979       .  S
O1285     Cr1289   1.992       .  S
O1285      C1286   1.262       .  A
C1286      C1578   1.482       .  S
Cr1287     O1290   1.784       .  S
Cr1288     O1290   1.771       .  S
Cr1289     O1290   1.777       .  S
O1291     Cr1309   1.982       .  S
O1291      C1299   1.259       .  A
O1292     Cr1309   1.996       .  S
O1292      C1293   1.261       .  A
C1293      O1294   1.260       .  A
O1294     Cr1310   1.965       .  S
O1295     Cr1310   1.962       .  S
O1295      C1296   1.259       .  A
C1296      O1297   1.267       .  A
C1296      C1566   1.485       .  S
O1297     Cr1311   2.013       .  S
O1298     Cr1311   1.999       .  S
O1298      C1299   1.263       .  A
C1299      C1557   1.474       .  S
O1300     Cr1309   1.994       .  S
O1300      C1308   1.261       .  A
O1301     Cr1309   1.984       .  S
O1301      C1302   1.262       .  A
C1302      O1303   1.257       .  A
C1302      C1561   1.466       .  S
O1303     Cr1310   1.985       .  S
O1304     Cr1310   1.998       .  S
O1304      C1305   1.265       .  A
C1305      O1306   1.263       .  A
C1305      C1602   1.474       .  S
O1306     Cr1311   1.989       .  S
O1307     Cr1311   2.000       .  S
O1307      C1308   1.265       .  A
C1308      C1577   1.480       .  S
Cr1309     O1312   1.782       .  S
Cr1310     O1312   1.771       .  S
Cr1311     O1312   1.778       .  S
O1313     Cr1331   2.011       .  S
O1313      C1321   1.262       .  A
O1314     Cr1331   1.995       .  S
O1314      C1315   1.265       .  A
C1315      O1316   1.260       .  A
C1315      C1545   1.470       .  S
O1316     Cr1332   1.991       .  S
O1317     Cr1332   1.980       .  S
O1317      C1318   1.266       .  A
C1318      O1319   1.271   1_556  A
C1318      C1554   1.486       .  S
O1320      C1321   1.258       .  A
C1321      C1558   1.475       .  S
O1322      C1330   1.263       .  A
O1323      C1324   1.267       .  A
C1324      O1325   1.258       .  A
C1324      C1549   1.484       .  S
O1326      C1327   1.265       .  A
C1327      O1328   1.258       .  A
C1327      C1537   1.453       .  S
O1328     Cr1333   1.967       .  S
O1329     Cr1333   2.004       .  S
O1329      C1330   1.262       .  A
C1330      C1542   1.481       .  S
Cr1333     O1334   1.764       .  S
O1335     Cr1353   1.972       .  S
O1335      C1343   1.254       .  A
O1336     Cr1353   2.001       .  S
O1336      C1337   1.264       .  A
C1337      O1338   1.261       .  A
O1338     Cr1354   1.961       .  S
O1339     Cr1354   2.005       .  S
O1339      C1340   1.265       .  A
C1340      O1341   1.264       .  A
C1340      C3182   1.492       .  S
O1341     Cr1355   2.002       .  S
O1342     Cr1355   2.000       .  S
O1342      C1343   1.265       .  A
C1343      C1522   1.474       .  S
O1344     Cr1353   2.006       .  S
O1344      C1352   1.265       .  A
O1345     Cr1353   1.979       .  S
O1345      C1346   1.257       .  A
C1346      O1347   1.263       .  A
C1346      C1586   1.469       .  S
O1347     Cr1354   2.001       .  S
O1348     Cr1354   1.991       .  S
O1348      C1349   1.264       .  A
C1349      O1350   1.265       .  A
C1349      C1526   1.467       .  S
O1350     Cr1355   1.999       .  S
O1351     Cr1355   1.987       .  S
O1351      C1352   1.264       .  A
C1352      C1530   1.487       .  S
Cr1353     O1356   1.789       .  S
Cr1354     O1356   1.771       .  S
Cr1355     O1356   1.772       .  S
O1357     Cr1375   1.992       .  S
O1357      C1365   1.257       .  A
O1358     Cr1375   2.030       .  S
O1358      C1359   1.276       .  A
C1359      O1360   1.267       .  A
C1359      C1517   1.487       .  S
O1360     Cr1376   1.970       .  S
O1361     Cr1376   1.979       .  S
O1361      C1362   1.255       .  A
C1362      O1363   1.258       .  A
O1363     Cr1377   2.002       .  S
O1364     Cr1377   1.977       .  S
O1364      C1365   1.258       .  A
C1365      C1505   1.483       .  S
O1366     Cr1375   2.024       .  S
O1366      C1374   1.271       .  A
O1367     Cr1375   2.001       .  S
O1367      C1368   1.257       .  A
C1368      O1369   1.253       .  A
C1368      C1553   1.483       .  S
O1369     Cr1376   1.989       .  S
O1370     Cr1376   2.006       .  S
O1370      C1371   1.272       .  A
C1371      O1372   1.267       .  A
C1371      C1510   1.476       .  S
O1372     Cr1377   1.984       .  S
O1373     Cr1377   1.982       .  S
O1373      C1374   1.261       .  A
Cr1375     O1378   1.794       .  S
Cr1376     O1378   1.783       .  S
Cr1377     O1378   1.783       .  S
O1379     Cr1397   2.018       .  S
O1379      C1387   1.267       .  A
O1380     Cr1397   1.981       .  S
O1380      C1381   1.259       .  A
C1381      O1382   1.259       .  A
C1381      C1534   1.466       .  S
O1382     Cr1398   1.993       .  S
O1383     Cr1398   1.956       .  S
O1383      C1384   1.260       .  A
C1384      O1385   1.271       .  A
O1385     Cr1399   2.029       .  S
O1386     Cr1399   1.970       .  S
O1386      C1387   1.258       .  A
C1387      C1506   1.478       .  S
O1388     Cr1397   1.968       .  S
O1388      C1396   1.257       .  A
O1389     Cr1397   2.016       .  S
O1389      C1390   1.270       .  A
C1390      O1391   1.259       .  A
C1390      C1502   1.460       .  S
O1391     Cr1398   1.951       .  S
O1392     Cr1398   2.011       .  S
O1392      C1393   1.261       .  A
C1393      O1394   1.258       .  A
C1393      C1574   1.470       .  S
O1394     Cr1399   1.978       .  S
O1395     Cr1399   2.025       .  S
O1395      C1396   1.270       .  A
C1396      C1529   1.483       .  S
Cr1397     O1400   1.775       .  S
Cr1398     O1400   1.770       .  S
Cr1399     O1400   1.767       .  S
O1401     Cr1419   2.028       .  S
O1401      C1409   1.268       .  A
O1402     Cr1419   1.976       .  S
O1402      C1403   1.262       .  A
C1403      O1404   1.260       .  A
C1403      C1630   1.462       .  S
O1404     Cr1420   1.990       .  S
O1405     Cr1420   1.956       .  S
O1405      C1406   1.258       .  A
C1406      O1407   1.269       .  A
O1407     Cr1421   2.027       .  S
O1408     Cr1421   1.981       .  S
O1408      C1409   1.260       .  A
C1409      C1570   1.485       .  S
O1410     Cr1419   1.973       .  S
O1410      C1418   1.258       .  A
O1411     Cr1419   2.018       .  S
O1411      C1412   1.269       .  A
C1412      O1413   1.257       .  A
C1412      C1493   1.465       .  S
O1413     Cr1420   1.956       .  S
O1414     Cr1420   2.006       .  S
O1414      C1415   1.262       .  A
C1415      O1416   1.258       .  A
C1415      C1509   1.464       .  S
O1416     Cr1421   1.974       .  S
O1417     Cr1421   2.022       .  S
O1417      C1418   1.271       .  A
Cr1419     O1422   1.772       .  S
Cr1420     O1422   1.771       .  S
Cr1421     O1422   1.764       .  S
O1423     Cr1441   2.026       .  S
O1423      C1431   1.273       .  A
O1424     Cr1441   1.965       .  S
O1424      C1425   1.256       .  A
C1425      O1426   1.269       .  A
C1425      C1546   1.474       .  S
O1426     Cr1442   2.006       .  S
O1427     Cr1442   1.967       .  S
O1427      C1428   1.255       .  A
C1428      O1429   1.260       .  A
C1428      C3133   1.465   1_455  S
O1429     Cr1443   2.003       .  S
O1430     Cr1443   1.966       .  S
O1430      C1431   1.260       .  A
C1431      C1609   1.478       .  S
O1432     Cr1441   1.988       .  S
O1432      C1440   1.260       .  A
O1433     Cr1441   2.019       .  S
O1433      C1434   1.267       .  A
C1434      O1435   1.255       .  A
C1434      C1490   1.475       .  S
O1435     Cr1442   1.960       .  S
O1436     Cr1442   2.025       .  S
O1436      C1437   1.269       .  A
C1437      O1438   1.261       .  A
C1437      C1525   1.465       .  S
O1438     Cr1443   1.965       .  S
O1439     Cr1443   2.003       .  S
O1439      C1440   1.260       .  A
C1440      C1541   1.484       .  S
Cr1441     O1444   1.780       .  S
Cr1442     O1444   1.776       .  S
Cr1443     O1444   1.772       .  S
O1445     Cr1463   2.016       .  S
O1445      C1453   1.268       .  A
O1446     Cr1463   1.983       .  S
O1446      C1447   1.258       .  A
C1447      O1448   1.264       .  A
C1447      C1594   1.478       .  S
O1448     Cr1464   1.999       .  S
O1449     Cr1464   1.975       .  S
O1449      C1450   1.261       .  A
C1450      O1451   1.264       .  A
C1450      C3126   1.461       .  S
O1452      C1453   1.255       .  A
C1453      C1521   1.473       .  S
O1454      C1462   1.261       .  A
O1455      C1456   1.272   1_554  A
C1456      C1565   1.465       .  S
O1457     Cr1464   1.970       .  S
O1458      C1459   1.253       .  A
C1459      O1460   1.257       .  A
C1459      C1614   1.472       .  S
O1460     Cr1465   1.984       .  S
O1461     Cr1465   2.007       .  S
O1461      C1462   1.268       .  A
C1462      C1597   1.485       .  S
Cr1463     O1466   1.780       .  S
Cr1464     O1466   1.774       .  S
O1467     Cr1485   2.021       .  S
O1467      C1475   1.270       .  A
O1468     Cr1485   2.007       .  S
O1468      C1469   1.265       .  A
C1469      O1470   1.261       .  A
C1469      C1518   1.474       .  S
O1470     Cr1486   1.993       .  S
O1471     Cr1486   1.978       .  S
O1471      C1472   1.264       .  A
C1472      O1473   1.266       .  A
C1472      C1489   1.476       .  S
O1473     Cr1487   2.013       .  S
O1474     Cr1487   1.960       .  S
O1474      C1475   1.257       .  A
C1475      C1589   1.472       .  S
O1476     Cr1485   2.004       .  S
O1476      C1484   1.262       .  A
O1477     Cr1485   2.018       .  S
O1477      C1478   1.267       .  A
C1478      O1479   1.258       .  A
C1478      C1498   1.465       .  S
O1479     Cr1486   1.956       .  S
O1480     Cr1486   1.998       .  S
O1480      C1481   1.262       .  A
C1481      O1482   1.256       .  A
C1481      C1538   1.457       .  S
O1482     Cr1487   1.971       .  S
O1483     Cr1487   2.003       .  S
O1483      C1484   1.262       .  A
C1484      C1514   1.492       .  S
Cr1485     O1488   1.775       .  S
Cr1486     O1488   1.768       .  S
Cr1487     O1488   1.767       .  S
C1489      C1490   1.341       .  D
C1489      H1491   1.086       .  S
C1490      H1492   1.088       .  S
C1493      C1494   1.337       .  D
C1493      H1495   1.089       .  S
C1494      C3082   1.459   1_455  S
C1494      H3128   1.086       .  S
H1496      C3126   1.086       .  S
C1497      C1498   1.351       .  D
C1497      H1499   1.086       .  S
C1498      H1500   1.087       .  S
C1501      C3060   1.473       .  S
C1501      C1502   1.344       .  D
C1501      H3135   1.086       .  S
C1502      H1504   1.087       .  S
H1503      C3133   1.087       .  S
C1505      C1506   1.347       .  D
C1505      H1507   1.086       .  S
C1506      H1508   1.088       .  S
C1509      H1511   1.089       .  S
C1510      H1512   1.086   1_556  S
C1513      C1514   1.348       .  D
C1513      H1515   1.087       .  S
C1514      H1516   1.087       .  S
C1517      C1518   1.347       .  D
C1517      H1519   1.086       .  S
C1518      H1520   1.087       .  S
C1521      C1522   1.341       .  D
C1521      H1523   1.088       .  S
C1522      H1524   1.086       .  S
C1525      C3158   1.343   1_455  D
C1525      H1527   1.089       .  S
C1526      C3157   1.347       .  D
C1526      H1528   1.087       .  S
C1529      C1530   1.344       .  D
C1529      H1531   1.087       .  S
C1530      H1532   1.086       .  S
C1533      C1534   1.339       .  D
C1533      H1535   1.087       .  S
C1534      H1536   1.087       .  S
C1537      C1538   1.339       .  D
C1537      H1539   1.088       .  S
C1538      H1540   1.089       .  S
C1541      C1542   1.343       .  D
C1541      H1543   1.087       .  S
C1542      H1544   1.087       .  S
C1545      C1546   1.338       .  D
C1545      H1547   1.087       .  S
C1546      H1548   1.087       .  S
C1549      C1550   1.351       .  D
C1549      H1551   1.087       .  S
C1550      C2972   1.492   1_455  S
C1550      H3184   1.086       .  S
H1552      C3182   1.086       .  S
C1553      C1554   1.345       .  D
C1553      H1555   1.087       .  S
C1554      H1556   1.086       .  S
C1557      C1558   1.343       .  D
C1557      H1559   1.087       .  S
C1558      H1560   1.086       .  S
C1561      C1562   1.335       .  D
C1561      H1563   1.087       .  S
C1565      C1566   1.354       .  D
C1566      H1568   1.086       .  S
C1569      C1570   1.349       .  D
C1569      H1571   1.086       .  S
C1570      H1572   1.087       .  S
C1573      H1575   1.086       .  S
C1574      H1576   1.089       .  S
C1577      C1578   1.340       .  D
C1577      H1579   1.087       .  S
C1578      H1580   1.087       .  S
C1581      C1582   1.336       .  D
C1581      H1583   1.087       .  S
C1582      H1584   1.087       .  S
C1585      C1586   1.351       .  D
C1586      H1588   1.087       .  S
C1589      C1590   1.342       .  D
C1589      H1591   1.087       .  S
C1590      H1592   1.086       .  S
C1593      C1594   1.345       .  D
C1593      H1595   1.087       .  S
C1594      H1596   1.086       .  S
C1597      C1598   1.347       .  D
C1597      H1599   1.087       .  S
C1598      H1600   1.087       .  S
C1601      C1602   1.350       .  D
C1601      H1603   1.089       .  S
C1602      H1604   1.086       .  S
C1605      C1606   1.343       .  D
C1605      H1607   1.087       .  S
C1606      H1608   1.087       .  S
C1609      C1610   1.349       .  D
C1609      H1611   1.087       .  S
C1610      H1612   1.086       .  S
C1613      C3246   1.329       .  D
C1613      H1615   1.087   1_455  S
C1614      C3245   1.330       .  D
C1614      H1616   1.087       .  S
C1617      C1618   1.349       .  D
C1617      H1619   1.087       .  S
C1621      C2862   1.470       .  S
C1621      C1622   1.348       .  D
C1621      H3255   1.086       .  S
C1622      H1624   1.088       .  S
H1623      C3253   1.086       .  S
C1625      C1626   1.341       .  D
C1625      H1627   1.088       .  S
C1626      H1628   1.086       .  S
C1629      C1630   1.336       .  D
C1629      H1631   1.087       .  S
C1630      H1632   1.087       .  S
O1633     Cr1651   2.022       .  S
O1633      C1641   1.265       .  A
O1634     Cr1651   1.968       .  S
O1634      C1635   1.254       .  A
C1635      O1636   1.265       .  A
C1635      C2037   1.469       .  S
O1636     Cr1652   2.001       .  S
O1637     Cr1652   1.982       .  S
O1637      C1638   1.265       .  A
C1638      O1639   1.268       .  A
O1639     Cr1653   2.014       .  S
O1640     Cr1653   1.972       .  S
O1640      C1641   1.256       .  A
C1641      C2018   1.485       .  S
O1642     Cr1651   1.949       .  S
O1642      C1650   1.255       .  A
O1643     Cr1651   2.032       .  S
O1643      C1644   1.272       .  A
C1644      O1645   1.265       .  A
C1644      C2025   1.489       .  S
O1645     Cr1652   1.984       .  S
O1646     Cr1652   2.006       .  S
O1646      C1647   1.260       .  A
C1647      O1648   1.260       .  A
C1647      C2021   1.473       .  S
O1648     Cr1653   1.981       .  S
O1649     Cr1653   2.034       .  S
O1649      C1650   1.271       .  A
C1650      C2033   1.476       .  S
Cr1651     O1654   1.781       .  S
Cr1652     O1654   1.779       .  S
Cr1653     O1654   1.773       .  S
O1655     Cr1673   2.033       .  S
O1655      C1663   1.274       .  A
O1656     Cr1673   1.974       .  S
O1656      C1657   1.257       .  A
C1657      O1658   1.266       .  A
C1657      C2001   1.473       .  S
O1658     Cr1674   1.999       .  S
O1659     Cr1674   1.961       .  S
O1659      C1660   1.255       .  A
C1660      O1661   1.263       .  A
C1660      C2013   1.463       .  S
O1661     Cr1675   2.008       .  S
O1662     Cr1675   1.952       .  S
O1662      C1663   1.256       .  A
C1663      C1998   1.474       .  S
O1664     Cr1673   1.993       .  S
O1664      C1672   1.261       .  A
O1665     Cr1673   2.037       .  S
O1665      C1666   1.272       .  A
C1666      O1667   1.258       .  A
C1666      C2030   1.481       .  S
O1667     Cr1674   1.960       .  S
O1668     Cr1674   2.024       .  S
O1668      C1669   1.268       .  A
C1669      O1670   1.259       .  A
C1669      C2009   1.467       .  S
O1670     Cr1675   1.969       .  S
O1671     Cr1675   2.001       .  S
O1671      C1672   1.260       .  A
C1672      C2006   1.480       .  S
Cr1673     O1676   1.778       .  S
Cr1674     O1676   1.771       .  S
Cr1675     O1676   1.770       .  S
O1677     Cr1695   2.016       .  S
O1677      C1685   1.265       .  A
O1678     Cr1695   1.990       .  S
O1678      C1679   1.261       .  A
C1679      O1680   1.256       .  A
C1679      C1990   1.463       .  S
O1680     Cr1696   1.989       .  S
O1681     Cr1696   1.969       .  S
O1681      C1682   1.266       .  A
C1682      O1683   1.269       .  A
C1682      C2809   1.474       .  S
O1683     Cr1697   2.017       .  S
O1684     Cr1697   1.974       .  S
O1684      C1685   1.259       .  A
C1685      C1977   1.485       .  S
O1686     Cr1695   1.966       .  S
O1686      C1694   1.256       .  A
O1687     Cr1695   2.008       .  S
O1687      C1688   1.269       .  A
C1688      O1689   1.260       .  A
C1688      C2014   1.458       .  S
O1689     Cr1696   1.962       .  S
O1690     Cr1696   1.990       .  S
O1690      C1691   1.257       .  A
C1691      O1692   1.256       .  A
C1691      C1981   1.462       .  S
O1692     Cr1697   1.981       .  S
O1693     Cr1697   2.018       .  S
O1693      C1694   1.268       .  A
C1694      C1986   1.480       .  S
Cr1695     O1698   1.773       .  S
Cr1696     O1698   1.774       .  S
Cr1697     O1698   1.770       .  S
O1699     Cr1717   1.988       .  S
O1699      C1707   1.260       .  A
O1700     Cr1717   2.013       .  S
O1700      C1701   1.266       .  A
C1701      O1702   1.258       .  A
C1701      C2397   1.461       .  S
O1702     Cr1718   1.959       .  S
O1703     Cr1718   1.988       .  S
O1703      C1704   1.262       .  A
C1704      O1705   1.264       .  A
C1704      C1974   1.486       .  S
O1705     Cr1719   2.005       .  S
O1706     Cr1719   1.996       .  S
O1706      C1707   1.262       .  A
C1707      C1965   1.476       .  S
O1708     Cr1717   2.011       .  S
O1708      C1716   1.266       .  A
O1709     Cr1717   1.981       .  S
O1709      C1710   1.259       .  A
C1710      O1711   1.260       .  A
C1710      C1969   1.469       .  S
O1711     Cr1718   1.996       .  S
O1712     Cr1718   1.988       .  S
O1712      C1713   1.262       .  A
C1713      O1714   1.266       .  A
C1713      C2010   1.468       .  S
O1714     Cr1719   1.995       .  S
O1715     Cr1719   1.979       .  S
O1715      C1716   1.264       .  A
C1716      C1985   1.483       .  S
Cr1717     O1720   1.781       .  S
Cr1718     O1720   1.770       .  S
Cr1719     O1720   1.770       .  S
O1721     Cr1739   2.029       .  S
O1721      C1729   1.270       .  A
O1722     Cr1739   1.990       .  S
O1722      C1723   1.262       .  A
C1723      O1724   1.269       .  A
C1723      C1953   1.487       .  S
O1724     Cr1740   2.007       .  S
O1725     Cr1740   1.971       .  S
O1725      C1726   1.258       .  A
C1726      O1727   1.263       .  A
C1726      C1962   1.473       .  S
O1727     Cr2149   2.009       .  S
O1728     Cr2149   1.969       .  S
O1728      C1729   1.261       .  A
C1729      C1966   1.480       .  S
O1730     Cr2147   2.002       .  S
O1730      C1738   1.266       .  A
O1731     Cr2147   2.017       .  S
O1731      C1732   1.264       .  A
C1732      O1733   1.258       .  A
C1732      C1957   1.475       .  S
O1733     Cr2148   1.970   1_554  S
O1734     Cr2148   1.990   1_554  S
O1734      C1735   1.261       .  A
C1735      O1736   1.257       .  A
C1735      C1945   1.451       .  S
O1736     Cr1741   1.971       .  S
O1737     Cr1741   2.013       .  S
O1737      C1738   1.265       .  A
C1738      C1950   1.497       .  S
Cr1739     O2138   1.996       .  S
Cr1739     O2139   2.027       .  S
Cr1739     O2150   1.778       .  S
Cr1740     O2141   1.962       .  S
Cr1740     O2142   2.015       .  S
Cr1740     O2150   1.773       .  S
Cr1741     O2135   2.012       .  S
Cr1741     O2136   1.976   1_554  S
Cr1741     O1742   1.768       .  S
O1742     Cr2147   1.777       .  S
O1742     Cr2148   1.770   1_554  S
O1743     Cr1761   2.009       .  S
O1743      C1751   1.262       .  A
O1744     Cr1761   1.974       .  S
O1744      C1745   1.257       .  A
C1745      O1746   1.271       .  A
C1745      C2349   1.480   1_554  S
O1746     Cr1762   2.015       .  S
O1747     Cr1762   1.956       .  S
O1747      C1748   1.255       .  A
C1748      O1749   1.270       .  A
O1749     Cr1763   2.035       .  S
O1750     Cr1763   1.982       .  S
O1750      C1751   1.261       .  A
C1751      C1930   1.479       .  S
O1752     Cr1761   1.965       .  S
O1752      C1760   1.258       .  A
O1753     Cr1761   2.013       .  S
O1753      C1754   1.266       .  A
C1754      O1755   1.255       .  A
C1754      C1994   1.464       .  S
O1755     Cr1762   1.960       .  S
O1756     Cr1762   2.031       .  S
O1756      C1757   1.269       .  A
C1757      O1758   1.259       .  A
C1757      C1934   1.474       .  S
O1758     Cr1763   1.969       .  S
O1759     Cr1763   2.038       .  S
O1759      C1760   1.274       .  A
C1760      C1938   1.486       .  S
Cr1761     O1764   1.778       .  S
Cr1762     O1764   1.772       .  S
Cr1763     O1764   1.764       .  S
O1765     Cr1783   1.966       .  S
O1765      C1773   1.253       .  A
O1766     Cr1783   2.010       .  S
O1766      C1767   1.268       .  A
C1767      O1768   1.262       .  A
C1767      C1925   1.477       .  S
O1768     Cr1784   1.972       .  S
O1769     Cr1784   1.990       .  S
O1769      C1770   1.261       .  A
C1770      O1771   1.266       .  A
C1770      C2842   1.498   1_545  S
O1771     Cr1785   2.018       .  S
O1772     Cr1785   2.003       .  S
O1772      C1773   1.265       .  A
C1773      C1913   1.472       .  S
O1774     Cr1783   2.007       .  S
O1774      C1782   1.265       .  A
O1775     Cr1783   1.974       .  S
O1775      C1776   1.255       .  A
C1776      O1777   1.260       .  A
C1776      C1961   1.476       .  S
O1777     Cr1784   2.005       .  S
O1778     Cr1784   1.997       .  S
O1778      C1779   1.267       .  A
C1779      O1780   1.267       .  A
C1779      C1918   1.474       .  S
O1780     Cr1785   1.997       .  S
O1781     Cr1785   2.000       .  S
O1781      C1782   1.266       .  A
C1782      C2329   1.493       .  S
Cr1783     O1786   1.788       .  S
Cr1784     O1786   1.778       .  S
Cr1785     O1786   1.779       .  S
O1787     Cr1805   2.013       .  S
O1787      C1795   1.266       .  A
O1788     Cr1805   1.990       .  S
O1788      C1789   1.260       .  A
C1789      O1790   1.259       .  A
C1789      C1942   1.463       .  S
O1790     Cr1806   1.990       .  S
O1791     Cr1806   1.977       .  S
O1791      C1792   1.265       .  A
C1792      O1793   1.270       .  A
C1792      C2786   1.481   1_545  S
O1793     Cr1807   2.021       .  S
O1794     Cr1807   1.965       .  S
O1794      C1795   1.255       .  A
C1795      C1914   1.473       .  S
O1796     Cr1805   1.977       .  S
O1796      C1804   1.257       .  A
O1797     Cr1805   2.016       .  S
O1797      C1798   1.269       .  A
C1798      O1799   1.261       .  A
C1798      C1910   1.465       .  S
O1799     Cr1806   1.960       .  S
O1800     Cr1806   1.999       .  S
O1800      C1801   1.260       .  A
C1801      O1802   1.255       .  A
C1801      C1982   1.462       .  S
O1802     Cr1807   1.975       .  S
O1803     Cr1807   2.019       .  S
O1803      C1804   1.269       .  A
C1804      C1937   1.488       .  S
Cr1805     O1808   1.776       .  S
Cr1806     O1808   1.770       .  S
Cr1807     O1808   1.766       .  S
O1809     Cr1827   2.023       .  S
O1809      C1817   1.267       .  A
O1810     Cr1827   1.978       .  S
O1810      C1811   1.261       .  A
C1811      O1812   1.262       .  A
C1811      C2038   1.466       .  S
O1812     Cr1828   1.997       .  S
O1813     Cr1828   1.961       .  S
O1813      C1814   1.260       .  A
C1814      O1815   1.268       .  A
C1814      C2721   1.474       .  S
O1815     Cr1829   2.022       .  S
O1816     Cr1829   1.969       .  S
O1816      C1817   1.257       .  A
C1817      C1978   1.480       .  S
O1818     Cr1827   1.976       .  S
O1818      C1826   1.258       .  A
O1819     Cr1827   2.014       .  S
O1819      C1820   1.269       .  A
C1820      O1821   1.261       .  A
C1820      C1901   1.470       .  S
O1821     Cr1828   1.968       .  S
O1822     Cr1828   2.021       .  S
O1822      C1823   1.264       .  A
C1823      O1824   1.257       .  A
C1823      C1917   1.472   1_554  S
O1824     Cr1829   1.972       .  S
O1825     Cr1829   2.017       .  S
O1825      C1826   1.270       .  A
C1826      C2442   1.486   1_554  S
Cr1827     O1830   1.777       .  S
Cr1828     O1830   1.773       .  S
Cr1829     O1830   1.766       .  S
O1831     Cr1849   1.991       .  S
O1831      C1839   1.255       .  A
O1832     Cr1849   2.039       .  S
O1832      C1833   1.278       .  A
C1833      O1834   1.260       .  A
C1833      C1954   1.475       .  S
O1834     Cr1850   1.956       .  S
O1835     Cr1850   1.974       .  S
O1835      C1836   1.259       .  A
C1836      O1837   1.258       .  A
O1837     Cr1851   1.989       .  S
O1838     Cr1851   1.988       .  S
O1838      C1839   1.256       .  A
C1839      C2017   1.482       .  S
O1840     Cr1849   2.051       .  S
O1840      C1848   1.280       .  A
O1841     Cr1849   1.996       .  S
O1841      C1842   1.258       .  A
C1842      O1843   1.251       .  A
C1842      C1898   1.474       .  S
O1843     Cr1850   1.973       .  S
O1844     Cr1850   1.993       .  S
O1844      C1845   1.264       .  A
C1845      O1846   1.267       .  A
C1845      C1933   1.472       .  S
O1846     Cr1851   2.010       .  S
O1847     Cr1851   1.961       .  S
O1847      C1848   1.261       .  A
C1848      C1949   1.492       .  S
Cr1849     O1852   1.785       .  S
Cr1850     O1852   1.780       .  S
Cr1851     O1852   1.782       .  S
O1853     Cr1871   2.008       .  S
O1853      C1861   1.265       .  A
O1854     Cr1871   1.990       .  S
O1854      C1855   1.256       .  A
C1855      O1856   1.255       .  A
C1855      C2002   1.470       .  S
O1856     Cr1872   1.990       .  S
O1857     Cr1872   1.969       .  S
O1857      C1858   1.266       .  A
C1858      O1859   1.272       .  A
O1859     Cr2281   2.016   1_554  S
O1860     Cr2281   1.962   1_554  S
O1860      C1861   1.254       .  A
C1861      C1929   1.476       .  S
O1862     Cr2279   1.984       .  S
O1862      C1870   1.262       .  A
O1863     Cr2279   2.032       .  S
O1863      C1864   1.272       .  A
C1864      O2273   1.261       .  A
C1864      C1973   1.473       .  S
O1865     Cr1872   1.966   1_556  S
O1865      C2272   1.267       .  A
O1866     Cr2280   1.985       .  S
O1866      C1867   1.254       .  A
C1867      O1868   1.261       .  A
C1867      C2022   1.456   1_655  S
O1868     Cr1873   1.982       .  S
O1869     Cr1873   2.002       .  S
O1869      C1870   1.262       .  A
C1870      C2005   1.482       .  S
Cr1871     O2270   1.973   1_554  S
Cr1871     O2271   2.027       .  S
Cr1871     O1874   1.783       .  S
Cr1872     O2274   2.003   1_554  S
Cr1872     O1874   1.779       .  S
Cr1873     O2267   1.990       .  S
Cr1873     O2268   1.958       .  S
Cr1873     O2282   1.765       .  S
O1874     Cr2281   1.773   1_554  S
O1875     Cr1893   2.013       .  S
O1875      C1883   1.265       .  A
O1876     Cr1893   1.994       .  S
O1876      C1877   1.264       .  A
C1877      O1878   1.261       .  A
C1877      C1926   1.468       .  S
O1878     Cr1894   1.997       .  S
O1879     Cr1894   1.981       .  S
O1879      C1880   1.266       .  A
C1880      O1881   1.264       .  A
C1880      C1897   1.477       .  S
O1881     Cr1895   2.007       .  S
O1882     Cr1895   1.975       .  S
O1882      C1883   1.262       .  A
C1883      C1997   1.481       .  S
O1884     Cr1893   1.988       .  S
O1884      C1892   1.263       .  A
O1885     Cr1893   2.013       .  S
O1885      C1886   1.265       .  A
C1886      O1887   1.259       .  A
C1886      C1906   1.471       .  S
O1887     Cr1894   1.968       .  S
O1888     Cr1894   1.987       .  S
O1888      C1889   1.260       .  A
C1889      O1890   1.258       .  A
C1889      C1946   1.453       .  S
O1890     Cr1895   1.977       .  S
O1891     Cr1895   2.008       .  S
O1891      C1892   1.263       .  A
C1892      C1922   1.487       .  S
Cr1893     O1896   1.772       .  S
Cr1894     O1896   1.769       .  S
Cr1895     O1896   1.767       .  S
C1897      C1898   1.339       .  D
C1897      H1899   1.087       .  S
C1898      H1900   1.087       .  S
C1901      C1902   1.344       .  D
C1901      H1903   1.088       .  S
C1905      C2630   1.484   1_545  S
C1905      C1906   1.352       .  D
C1905      H1907   1.086       .  S
C1906      H1908   1.087       .  S
C1909      C1910   1.349       .  D
C1910      H1912   1.087       .  S
C1913      C1914   1.339       .  D
C1913      H1915   1.086       .  S
C1914      H1916   1.088       .  S
C1917      C3142   1.349       .  D
C1917      H1919   1.089       .  S
C1918      C3141   1.348   1_545  D
C1918      H1920   1.086       .  S
C1921      C2190   1.482       .  S
C1921      C1922   1.345       .  D
C1921      H1923   1.088       .  S
C1922      H1924   1.086       .  S
C1925      C1926   1.342       .  D
C1925      H1927   1.087       .  S
C1926      H1928   1.087       .  S
C1929      C1930   1.343       .  D
C1929      H1931   1.087       .  S
C1930      H1932   1.086       .  S
C1933      H1935   1.087       .  S
C1934      H1936   1.089       .  S
C1937      C1938   1.345       .  D
C1937      H1939   1.087       .  S
C1938      H1940   1.087       .  S
C1941      C2153   1.475       .  S
C1941      C1942   1.342       .  D
C1941      H1943   1.086       .  S
C1942      H1944   1.087       .  S
C1945      C1946   1.342       .  D
C1945      H1947   1.088       .  S
C1946      H1948   1.088       .  S
C1949      C1950   1.347       .  D
C1949      H1951   1.087       .  S
C1950      H1952   1.086       .  S
C1953      C1954   1.345       .  D
C1953      H1955   1.087       .  S
C1954      H1956   1.087       .  S
C1957      C1958   1.353       .  D
C1957      H1959   1.087       .  S
C1961      C1962   1.345       .  D
C1961      H1963   1.087       .  S
C1962      H1964   1.086       .  S
C1965      C1966   1.345       .  D
C1965      H1967   1.088       .  S
C1966      H1968   1.086       .  S
C1969      C1970   1.342       .  D
C1969      H1971   1.087       .  S
C1970      C2608   1.474       .  S
C1970      H2788   1.086       .  S
H1972      C2786   1.087       .  S
C1973      C1974   1.350       .  D
C1973      H2383   1.087       .  S
C1974      H1976   1.086       .  S
H1975      C2381   1.087       .  S
C1977      C1978   1.347       .  D
C1977      H1979   1.086       .  S
C1978      H1980   1.087       .  S
C1981      C2798   1.347       .  D
C1981      H1983   1.088       .  S
C1982      C2797   1.344   1_545  D
C1982      H1984   1.088       .  S
C1985      C1986   1.344       .  D
C1985      H1987   1.086       .  S
C1986      H1988   1.087       .  S
C1989      C2109   1.469   1_554  S
C1989      C1990   1.334       .  D
C1989      H1991   1.087       .  S
C1990      H1992   1.087       .  S
C1993      C2498   1.475   1_545  S
C1993      C1994   1.342       .  D
C1993      H2811   1.087       .  S
C1994      H1996   1.087       .  S
H1995      C2809   1.087       .  S
C1997      C1998   1.342       .  D
C1997      H1999   1.086       .  S
C1998      H2000   1.087       .  S
C2001      C2002   1.341       .  D
C2001      H2003   1.087       .  S
C2002      H2004   1.087       .  S
C2005      C2006   1.344       .  D
C2005      H2007   1.087       .  S
C2006      H2008   1.087       .  S
C2009      C2010   1.345       .  D
C2009      H2011   1.089       .  S
C2010      H2012   1.087       .  S
C2013      C2014   1.340       .  D
C2013      H2015   1.087       .  S
C2014      H2016   1.087       .  S
C2017      C2018   1.349       .  D
C2017      H2019   1.088       .  S
C2018      H2020   1.086       .  S
C2021      H2023   1.087       .  S
C2022      H2024   1.087       .  S
C2025      C2026   1.352       .  D
C2025      H2027   1.087       .  S
C2026      C2586   1.491       .  S
C2026      H2844   1.086       .  S
H2028      C2842   1.086       .  S
C2029      C2030   1.344       .  D
C2030      H2032   1.088       .  S
C2033      C2034   1.344       .  D
C2033      H2035   1.088       .  S
C2034      C2234   1.485       .  S
C2034      H2036   1.086       .  S
C2037      C2038   1.339       .  D
C2037      H2039   1.087       .  S
C2038      H2040   1.087       .  S
O2041     Cr2059   2.014       .  S
O2041      C2049   1.264       .  A
O2042     Cr2059   1.979       .  S
O2042      C2043   1.256       .  A
C2043      O2044   1.260       .  A
C2043      C2445   1.465       .  S
O2044     Cr2060   1.989       .  S
O2045     Cr2060   1.966       .  S
O2045      C2046   1.262       .  A
C2046      O2047   1.271       .  A
O2047     Cr2061   2.021       .  S
O2048     Cr2061   1.961       .  S
O2048      C2049   1.255       .  A
C2049      C2426   1.477       .  S
O2050     Cr2059   1.966       .  S
O2050      C2058   1.258       .  A
O2051     Cr2059   2.021       .  S
O2051      C2052   1.271       .  A
C2052      O2053   1.262       .  A
C2052      C2433   1.466       .  S
O2053     Cr2060   1.960       .  S
O2054     Cr2060   2.000       .  S
O2054      C2055   1.257       .  A
C2055      O2056   1.259       .  A
C2055      C2429   1.466       .  S
O2056     Cr2061   1.976       .  S
O2057     Cr2061   2.030       .  S
O2057      C2058   1.272       .  A
C2058      C2441   1.484       .  S
Cr2059     O2062   1.777       .  S
Cr2060     O2062   1.774       .  S
Cr2061     O2062   1.764       .  S
O2063     Cr2081   2.017       .  S
O2063      C2071   1.265       .  A
O2064     Cr2081   1.960       .  S
O2064      C2065   1.255       .  A
C2065      O2066   1.270       .  A
C2065      C2409   1.466       .  S
O2066     Cr2082   2.008       .  S
O2067     Cr2082   1.958       .  S
O2067      C2068   1.255       .  A
C2068      O2069   1.268       .  A
C2068      C2421   1.476       .  S
O2069     Cr2083   2.026       .  S
O2070     Cr2083   1.982       .  S
O2070      C2071   1.261       .  A
C2071      C2406   1.486       .  S
O2072     Cr2081   1.962       .  S
O2072      C2080   1.256       .  A
O2073     Cr2081   2.011       .  S
O2073      C2074   1.266       .  A
C2074      O2075   1.258       .  A
C2074      C2438   1.467       .  S
O2075     Cr2082   1.964       .  S
O2076     Cr2082   2.032       .  S
O2076      C2077   1.269       .  A
C2077      O2078   1.260       .  A
C2077      C2417   1.477       .  S
O2078     Cr2083   1.973       .  S
O2079     Cr2083   2.033       .  S
O2079      C2080   1.273       .  A
C2080      C2414   1.481       .  S
Cr2081     O2084   1.778       .  S
Cr2082     O2084   1.771       .  S
Cr2083     O2084   1.764       .  S
O2085     Cr2103   1.985       .  S
O2085      C2093   1.259       .  A
O2086     Cr2103   2.001       .  S
O2086      C2087   1.260       .  A
C2087      O2088   1.256       .  A
C2087      C2398   1.457       .  S
O2088     Cr2104   1.969       .  S
O2089     Cr2104   2.003       .  S
O2089      C2090   1.267       .  A
C2090      O2091   1.269       .  A
C2090      C3217   1.493       .  S
O2091     Cr2105   2.004       .  S
O2092     Cr2105   2.009       .  S
O2092      C2093   1.267       .  A
C2093      C2385   1.480       .  S
O2094     Cr2103   2.005       .  S
O2094      C2102   1.264       .  A
O2095     Cr2103   1.969       .  S
O2095      C2096   1.258       .  A
C2096      O2097   1.269       .  A
C2096      C2422   1.474       .  S
O2097     Cr2104   2.020       .  S
O2098     Cr2104   1.987       .  S
O2098      C2099   1.261       .  A
C2099      O2100   1.262       .  A
C2099      C2389   1.462       .  S
O2100     Cr2105   1.974       .  S
O2101     Cr2105   1.986       .  S
O2101      C2102   1.261       .  A
C2102      C2394   1.485       .  S
Cr2103     O2106   1.779       .  S
Cr2104     O2106   1.767       .  S
Cr2105     O2106   1.773       .  S
O2107     Cr2125   1.980       .  S
O2107      C2115   1.259       .  A
O2108     Cr2125   1.991       .  S
O2108      C2109   1.261       .  A
C2109      O2110   1.264       .  A
O2110     Cr2126   1.980       .  S
O2111     Cr2126   1.968       .  S
O2111      C2112   1.258       .  A
C2112      O2113   1.269       .  A
C2112      C2382   1.490       .  S
O2113     Cr2127   2.023       .  S
O2114     Cr2127   1.997       .  S
O2114      C2115   1.262       .  A
C2115      C2373   1.473       .  S
O2116     Cr2125   1.992       .  S
O2116      C2124   1.261       .  A
O2117     Cr2125   1.986       .  S
O2117      C2118   1.262       .  A
C2118      O2119   1.257       .  A
C2118      C2377   1.468       .  S
O2119     Cr2126   1.985       .  S
O2120     Cr2126   2.005       .  S
O2120      C2121   1.268       .  A
C2121      O2122   1.264       .  A
C2121      C2418   1.476       .  S
O2122     Cr2127   1.987       .  S
O2123     Cr2127   2.005       .  S
O2123      C2124   1.266       .  A
C2124      C2393   1.481       .  S
Cr2125     O2128   1.781       .  S
Cr2126     O2128   1.771       .  S
Cr2127     O2128   1.777       .  S
O2129     Cr2147   2.015       .  S
O2129      C2137   1.265   1_554  A
O2130     Cr2147   2.008   1_556  S
O2130      C2131   1.268       .  A
C2131      O2132   1.266       .  A
C2131      C2361   1.481       .  S
O2132     Cr2148   2.002       .  S
O2133     Cr2148   1.989       .  S
O2133      C2134   1.266       .  A
C2134      O2135   1.265   1_556  A
C2134      C2370   1.486       .  S
O2136      C2137   1.261       .  A
C2137      C2374   1.473       .  S
O2138      C2146   1.263       .  A
O2139      C2140   1.269       .  A
C2140      O2141   1.256       .  A
C2140      C2365   1.479       .  S
O2142      C2143   1.267       .  A
C2143      O2144   1.261       .  A
C2143      C2353   1.465       .  S
O2144     Cr2149   1.973       .  S
O2145     Cr2149   2.012       .  S
O2145      C2146   1.264       .  A
C2146      C2358   1.491       .  S
Cr2149     O2150   1.767       .  S
O2151     Cr2169   1.977       .  S
O2151      C2159   1.255       .  A
O2152     Cr2169   2.024       .  S
O2152      C2153   1.273       .  A
C2153      O2154   1.263       .  A
O2154     Cr2170   1.954       .  S
O2155     Cr2170   1.994       .  S
O2155      C2156   1.260       .  A
C2156      O2157   1.257       .  A
O2157     Cr2171   1.997       .  S
O2158     Cr2171   2.001       .  S
O2158      C2159   1.265       .  A
C2159      C2338   1.483       .  S
O2160     Cr2169   2.014       .  S
O2160      C2168   1.269       .  A
O2161     Cr2169   1.990       .  S
O2161      C2162   1.256       .  A
C2162      O2163   1.256       .  A
C2162      C2402   1.479       .  S
O2163     Cr2170   1.997       .  S
O2164     Cr2170   1.981       .  S
O2164      C2165   1.264       .  A
C2165      O2166   1.272       .  A
C2165      C2342   1.466       .  S
O2166     Cr2171   2.013       .  S
O2167     Cr2171   1.979       .  S
O2167      C2168   1.260       .  A
C2168      C2346   1.488       .  S
Cr2169     O2172   1.785       .  S
Cr2170     O2172   1.777       .  S
Cr2171     O2172   1.778       .  S
O2173     Cr2191   1.990       .  S
O2173      C2181   1.256       .  A
O2174     Cr2191   2.014       .  S
O2174      C2175   1.268       .  A
C2175      O2176   1.263       .  A
C2175      C2333   1.482       .  S
O2176     Cr2192   1.971       .  S
O2177     Cr2192   1.991       .  S
O2177      C2178   1.265       .  A
C2178      O2179   1.263       .  A
C2178      C3250   1.481   1_545  S
O2179     Cr2193   1.992       .  S
O2180     Cr2193   2.000       .  S
O2180      C2181   1.257       .  A
C2181      C2321   1.475       .  S
O2182     Cr2191   2.039       .  S
O2182      C2190   1.276   1_556  A
O2183     Cr2191   1.999       .  S
O2183      C2184   1.263       .  A
C2184      O2185   1.260       .  A
C2184      C2369   1.487       .  S
O2185     Cr2192   1.997       .  S
O2186     Cr2192   2.003       .  S
O2186      C2187   1.265       .  A
C2187      O2188   1.263       .  A
C2187      C2326   1.476       .  S
O2188     Cr2193   1.997       .  S
O2189     Cr2193   1.959   1_554  S
O2189      C2190   1.259       .  A
Cr2191     O2194   1.782       .  S
Cr2192     O2194   1.773       .  S
Cr2193     O2194   1.783       .  S
O2195     Cr2213   1.986       .  S
O2195      C2203   1.254       .  A
O2196     Cr2213   2.028       .  S
O2196      C2197   1.273       .  A
C2197      O2198   1.254       .  A
C2197      C2350   1.469       .  S
O2198     Cr2214   1.945       .  S
O2199     Cr2214   1.993       .  S
O2199      C2200   1.268       .  A
C2200      O2201   1.265       .  A
C2200      C3194   1.482   1_545  S
O2201     Cr2215   1.993       .  S
O2202     Cr2215   2.002       .  S
O2202      C2203   1.257       .  A
C2203      C2322   1.477       .  S
O2204     Cr2213   2.044       .  S
O2204      C2212   1.279       .  A
O2205     Cr2213   1.980       .  S
O2205      C2206   1.256       .  A
C2206      O2207   1.257       .  A
C2206      C2318   1.469       .  S
O2207     Cr2214   1.984       .  S
O2208     Cr2214   1.979       .  S
O2208      C2209   1.255       .  A
C2209      O2210   1.263       .  A
C2209      C2390   1.460       .  S
O2210     Cr2215   1.992       .  S
O2211     Cr2215   1.959       .  S
O2211      C2212   1.260       .  A
C2212      C2345   1.482       .  S
Cr2213     O2216   1.777       .  S
Cr2214     O2216   1.776       .  S
Cr2215     O2216   1.782       .  S
O2217     Cr2235   1.969       .  S
O2217      C2225   1.249       .  A
O2218     Cr2235   1.998       .  S
O2218      C2219   1.268       .  A
C2219      O2220   1.257       .  A
C2219      C2446   1.459       .  S
O2220     Cr2236   1.960       .  S
O2221     Cr2236   1.971       .  S
O2221      C2222   1.260       .  A
C2222      O2223   1.265       .  A
C2222      C3129   1.474       .  S
O2223     Cr2237   2.004       .  S
O2224     Cr2237   2.017       .  S
O2224      C2225   1.261       .  A
C2225      C2386   1.474       .  S
O2226     Cr2235   2.024       .  S
O2226      C2234   1.272       .  A
O2227     Cr2235   1.957       .  S
O2227      C2228   1.255       .  A
C2228      O2229   1.256       .  A
C2228      C2309   1.464       .  S
O2229     Cr2236   1.990       .  S
O2230     Cr2236   1.990       .  S
O2230      C2231   1.264       .  A
C2231      O2232   1.269       .  A
C2231      C2325   1.473       .  S
O2232     Cr2237   2.011       .  S
O2233     Cr2237   1.960       .  S
O2233      C2234   1.264       .  A
Cr2235     O2238   1.772       .  S
Cr2236     O2238   1.777       .  S
Cr2237     O2238   1.777       .  S
O2239     Cr2257   1.979       .  S
O2239      C2247   1.256       .  A
O2240     Cr2257   2.038       .  S
O2240      C2241   1.278       .  A
C2241      O2242   1.267       .  A
C2241      C2362   1.491       .  S
O2242     Cr2258   1.972       .  S
O2243     Cr2258   1.977       .  S
O2243      C2244   1.256       .  A
C2244      O2245   1.258       .  A
O2245     Cr2259   1.997       .  S
O2246     Cr2259   1.987       .  S
O2246      C2247   1.259       .  A
C2247      C2425   1.473       .  S
O2248     Cr2257   2.026       .  S
O2248      C2256   1.272       .  A
O2249     Cr2257   1.993       .  S
O2249      C2250   1.254       .  A
C2250      O2251   1.252       .  A
C2250      C2306   1.474       .  S
O2251     Cr2258   1.987       .  S
O2252     Cr2258   2.002       .  S
O2252      C2253   1.271       .  A
C2253      O2254   1.269       .  A
C2253      C2341   1.473       .  S
O2254     Cr2259   2.005       .  S
O2255     Cr2259   1.970       .  S
O2255      C2256   1.259       .  A
C2256      C2357   1.488       .  S
Cr2257     O2260   1.784       .  S
Cr2258     O2260   1.775       .  S
Cr2259     O2260   1.779       .  S
O2261     Cr2279   2.029       .  S
O2261      C2269   1.270       .  A
O2262     Cr2279   1.985       .  S
O2262      C2263   1.260       .  A
C2263      O2264   1.255       .  A
C2263      C2410   1.464       .  S
O2264     Cr2280   1.985       .  S
O2265     Cr2280   1.980       .  S
O2265      C2266   1.266       .  A
C2266      O2267   1.263       .  A
O2268      C2269   1.254       .  A
C2269      C2337   1.479       .  S
O2270      C2278   1.258       .  A
O2271      C2272   1.273   1_554  A
C2272      C2381   1.473       .  S
O2273     Cr2280   1.961       .  S
O2274      C2275   1.253       .  A
C2275      O2276   1.255       .  A
C2275      C2430   1.473   1_655  S
O2276     Cr2281   1.985       .  S
O2277     Cr2281   2.009       .  S
O2277      C2278   1.269       .  A
C2278      C2413   1.484       .  S
Cr2279     O2282   1.777       .  S
Cr2280     O2282   1.775       .  S
O2283     Cr2301   2.020       .  S
O2283      C2291   1.268       .  A
O2284     Cr2301   1.998       .  S
O2284      C2285   1.262       .  A
C2285      O2286   1.260       .  A
C2285      C2334   1.474       .  S
O2286     Cr2302   1.998       .  S
O2287     Cr2302   1.969       .  S
O2287      C2288   1.265       .  A
C2288      O2289   1.272       .  A
C2288      C2305   1.480       .  S
O2289     Cr2303   2.029       .  S
O2290     Cr2303   1.968       .  S
O2290      C2291   1.257       .  A
C2291      C2405   1.482       .  S
O2292     Cr2301   1.980       .  S
O2292      C2300   1.258       .  A
O2293     Cr2301   2.013       .  S
O2293      C2294   1.269       .  A
C2294      O2295   1.261       .  A
C2294      C2314   1.460       .  S
O2295     Cr2302   1.963       .  S
O2296     Cr2302   2.007       .  S
O2296      C2297   1.260       .  A
C2297      O2298   1.253       .  A
C2297      C2354   1.467       .  S
O2298     Cr2303   1.976       .  S
O2299     Cr2303   2.019       .  S
O2299      C2300   1.268       .  A
C2300      C2330   1.492       .  S
Cr2301     O2304   1.776       .  S
Cr2302     O2304   1.774       .  S
Cr2303     O2304   1.771       .  S
C2305      C2306   1.343       .  D
C2305      H2307   1.086       .  S
C2306      H2308   1.087       .  S
C2309      C2310   1.338       .  D
C2309      H2311   1.088       .  S
C2313      C3038   1.473   1_545  S
C2313      C2314   1.345       .  D
C2313      H2315   1.087       .  S
C2314      H2316   1.087       .  S
C2317      C2318   1.345       .  D
C2318      H2320   1.087       .  S
C2321      C2322   1.344       .  D
C2321      H2323   1.087       .  S
C2322      H2324   1.087       .  S
C2325      C2734   1.347       .  D
C2325      H2327   1.086       .  S
C2326      C2733   1.349   1_545  D
C2326      H2328   1.086   1_556  S
C2329      C2330   1.348       .  D
C2329      H2331   1.086       .  S
C2330      H2332   1.087       .  S
C2333      C2334   1.343       .  D
C2333      H2335   1.086       .  S
C2334      H2336   1.087       .  S
C2337      C2338   1.342       .  D
C2337      H2339   1.088       .  S
C2338      H2340   1.086       .  S
C2341      H2343   1.087       .  S
C2342      H2344   1.087       .  S
C2345      C2346   1.345       .  D
C2345      H2347   1.087       .  S
C2346      H2348   1.087       .  S
C2349      C2350   1.338       .  D
C2349      H2351   1.087       .  S
C2350      H2352   1.087       .  S
C2353      C2354   1.345       .  D
C2353      H2355   1.088       .  S
C2354      H2356   1.088       .  S
C2357      C2358   1.346       .  D
C2357      H2359   1.087       .  S
C2358      H2360   1.086       .  S
C2361      C2362   1.349       .  D
C2361      H2363   1.087       .  S
C2362      H2364   1.086       .  S
C2365      C2366   1.346       .  D
C2365      H2367   1.087       .  S
C2369      C2370   1.345       .  D
C2369      H2371   1.087       .  S
C2370      H2372   1.086       .  S
C2373      C2374   1.342       .  D
C2373      H2375   1.087       .  S
C2374      H2376   1.086       .  S
C2377      C2378   1.336       .  D
C2377      H2379   1.087       .  S
C2378      C3016   1.470       .  S
C2378      H3196   1.087       .  S
H2380      C3194   1.086       .  S
C2381      C2382   1.357       .  D
C2382      H2384   1.086       .  S
C2385      C2386   1.341       .  D
C2385      H2387   1.087       .  S
C2386      H2388   1.087       .  S
C2389      C3206   1.348       .  D
C2389      H2391   1.086       .  S
C2390      C3205   1.343   1_545  D
C2390      H2392   1.086       .  S
C2393      C2394   1.342       .  D
C2393      H2395   1.087       .  S
C2394      H2396   1.086       .  S
C2397      C2398   1.339       .  D
C2397      H2399   1.087       .  S
C2398      H2400   1.087       .  S
C2401      C2906   1.483   1_545  S
C2401      C2402   1.346       .  D
C2401      H3219   1.086       .  S
C2402      H2404   1.087       .  S
H2403      C3217   1.086       .  S
C2405      C2406   1.347       .  D
C2405      H2407   1.087       .  S
C2406      H2408   1.086       .  S
C2409      C2410   1.336       .  D
C2409      H2411   1.087       .  S
C2410      H2412   1.087       .  S
C2413      C2414   1.342       .  D
C2413      H2415   1.087       .  S
C2414      H2416   1.087       .  S
C2417      C2418   1.349       .  D
C2417      H2419   1.089       .  S
C2418      H2420   1.086       .  S
C2421      C2422   1.349       .  D
C2421      H2423   1.086       .  S
C2422      H2424   1.087       .  S
C2425      C2426   1.348       .  D
C2425      H2427   1.088       .  S
C2426      H2428   1.086       .  S
C2429      H2431   1.087       .  S
C2430      H2432   1.087       .  S
C2433      C2434   1.348       .  D
C2433      H2435   1.087       .  S
C2434      C2994   1.477       .  S
C2434      H3252   1.086       .  S
H2436      C3250   1.086       .  S
C2437      C2438   1.342       .  D
C2438      H2440   1.088       .  S
C2441      C2442   1.345       .  D
C2441      H2443   1.087       .  S
C2442      H2444   1.087       .  S
C2445      C2446   1.341       .  D
C2445      H2447   1.087       .  S
C2446      H2448   1.087       .  S
O2449     Cr2467   2.021       .  S
O2449      C2457   1.265       .  A
O2450     Cr2467   1.974       .  S
O2450      C2451   1.255       .  A
C2451      O2452   1.263       .  A
C2451      C2853   1.468       .  S
O2452     Cr2468   1.992       .  S
O2453     Cr2468   1.983       .  S
O2453      C2454   1.266       .  A
C2454      O2455   1.270       .  A
O2455     Cr2469   2.022       .  S
O2456     Cr2469   1.977       .  S
O2456      C2457   1.257       .  A
C2457      C2834   1.485       .  S
O2458     Cr2467   1.954       .  S
O2458      C2466   1.254       .  A
O2459     Cr2467   2.036       .  S
O2459      C2460   1.272       .  A
C2460      O2461   1.262       .  A
C2460      C2841   1.485       .  S
O2461     Cr2468   1.972       .  S
O2462     Cr2468   1.993       .  S
O2462      C2463   1.257       .  A
C2463      O2464   1.261       .  A
C2463      C2837   1.467       .  S
O2464     Cr2469   1.984       .  S
O2465     Cr2469   2.031       .  S
O2465      C2466   1.273       .  A
C2466      C2849   1.478       .  S
Cr2467     O2470   1.785       .  S
Cr2468     O2470   1.775       .  S
Cr2469     O2470   1.767       .  S
O2471     Cr2489   2.017       .  S
O2471      C2479   1.266       .  A
O2472     Cr2489   1.970       .  S
O2472      C2473   1.258       .  A
C2473      O2474   1.270       .  A
C2473      C2817   1.473       .  S
O2474     Cr2490   2.005       .  S
O2475     Cr2490   1.974       .  S
O2475      C2476   1.257       .  A
C2476      O2477   1.262       .  A
C2476      C2829   1.476       .  S
O2477     Cr2491   2.010       .  S
O2478     Cr2491   1.972       .  S
O2478      C2479   1.261       .  A
C2479      C2814   1.481       .  S
O2480     Cr2489   1.989       .  S
O2480      C2488   1.263       .  A
O2481     Cr2489   2.016       .  S
O2481      C2482   1.265       .  A
C2482      O2483   1.258       .  A
C2482      C2846   1.479       .  S
O2483     Cr2490   1.974       .  S
O2484     Cr2490   2.021       .  S
O2484      C2485   1.269       .  A
C2485      O2486   1.259       .  A
C2485      C2825   1.466       .  S
O2486     Cr2491   1.969       .  S
O2487     Cr2491   2.008       .  S
O2487      C2488   1.264       .  A
C2488      C2822   1.481       .  S
Cr2489     O2492   1.780       .  S
Cr2490     O2492   1.772       .  S
Cr2491     O2492   1.767       .  S
O2493     Cr2511   2.037       .  S
O2493      C2501   1.271       .  A
O2494     Cr2511   1.979       .  S
O2494      C2495   1.260       .  A
C2495      O2496   1.258       .  A
C2495      C2806   1.468       .  S
O2496     Cr2512   1.993       .  S
O2497     Cr2512   1.966       .  S
O2497      C2498   1.261       .  A
C2498      O2499   1.270       .  A
O2499     Cr2513   2.024       .  S
O2500     Cr2513   1.960       .  S
O2500      C2501   1.253       .  A
C2501      C2793   1.480       .  S
O2502     Cr2511   1.969       .  S
O2502      C2510   1.255       .  A
O2503     Cr2511   2.029       .  S
O2503      C2504   1.274       .  A
C2504      O2505   1.261       .  A
C2504      C2830   1.472       .  S
O2505     Cr2512   1.961       .  S
O2506     Cr2512   2.003       .  S
O2506      C2507   1.261       .  A
C2507      O2508   1.255       .  A
C2507      C2797   1.461       .  S
O2508     Cr2513   1.973       .  S
O2509     Cr2513   2.021       .  S
O2509      C2510   1.269       .  A
C2510      C2802   1.484       .  S
Cr2511     O2514   1.773       .  S
Cr2512     O2514   1.774       .  S
Cr2513     O2514   1.766       .  S
O2515     Cr2533   2.031       .  S
O2515      C2523   1.272       .  A
O2516     Cr2533   1.955       .  S
O2516      C2517   1.252       .  A
C2517      O2518   1.266       .  A
C2517      C3213   1.464       .  S
O2518     Cr2534   2.007       .  S
O2519     Cr2534   1.959       .  S
O2519      C2520   1.257       .  A
C2520      O2521   1.271       .  A
C2520      C2790   1.478       .  S
O2521     Cr2535   2.038       .  S
O2522     Cr2535   1.963       .  S
O2522      C2523   1.258       .  A
C2523      C2781   1.482       .  S
O2524     Cr2533   1.963       .  S
O2524      C2532   1.254       .  A
O2525     Cr2533   2.031       .  S
O2525      C2526   1.272       .  A
C2526      O2527   1.256       .  A
C2526      C2785   1.471       .  S
O2527     Cr2534   1.954       .  S
O2528     Cr2534   2.020       .  S
O2528      C2529   1.267       .  A
C2529      O2530   1.255       .  A
C2529      C2826   1.469       .  S
O2530     Cr2535   1.970       .  S
O2531     Cr2535   2.024       .  S
O2531      C2532   1.269       .  A
C2532      C2801   1.482       .  S
Cr2533     O2536   1.778       .  S
Cr2534     O2536   1.774       .  S
Cr2535     O2536   1.770       .  S
O2537     Cr2555   2.025       .  S
O2537      C2545   1.268       .  A
O2538     Cr2555   1.977       .  S
O2538      C2539   1.260       .  A
C2539      O2540   1.271       .  A
C2539      C2769   1.482       .  S
O2540     Cr2556   2.016       .  S
O2541     Cr2556   1.972       .  S
O2541      C2542   1.258       .  A
C2542      O2543   1.266       .  A
C2542      C2778   1.479       .  S
O2543     Cr2965   2.019       .  S
O2544     Cr2965   1.977       .  S
O2544      C2545   1.261       .  A
C2545      C2782   1.489       .  S
O2546     Cr2963   1.970   1_554  S
O2546      C2554   1.257       .  A
O2547     Cr2963   2.022       .  S
O2547      C2548   1.269   1_556  A
C2548      O2549   1.260       .  A
C2548      C2773   1.486       .  S
O2549     Cr2964   1.980   1_554  S
O2550     Cr2964   2.000   1_554  S
O2550      C2551   1.264       .  A
C2551      O2552   1.259       .  A
C2551      C2761   1.459       .  S
O2552     Cr2557   1.973       .  S
O2553     Cr2557   2.030       .  S
O2553      C2554   1.269       .  A
C2554      C2766   1.485       .  S
Cr2555     O2954   1.989       .  S
Cr2555     O2955   2.027       .  S
Cr2555     O2966   1.780       .  S
Cr2556     O2957   1.973       .  S
Cr2556     O2958   2.023       .  S
Cr2556     O2966   1.774       .  S
Cr2557     O2951   2.022       .  S
Cr2557     O2952   1.978       .  S
Cr2557     O2558   1.772       .  S
O2558     Cr2963   1.780   1_554  S
O2558     Cr2964   1.776   1_554  S
O2559     Cr2577   1.977       .  S
O2559      C2567   1.256       .  A
O2560     Cr2577   2.008       .  S
O2560      C2561   1.266       .  A
C2561      O2562   1.263       .  A
C2561      C3165   1.476   1_554  S
O2562     Cr2578   1.972       .  S
O2563     Cr2578   1.967       .  S
O2563      C2564   1.257       .  A
C2564      O2565   1.265       .  A
O2565     Cr2579   2.011       .  S
O2566     Cr2579   1.998       .  S
O2566      C2567   1.264       .  A
C2567      C2746   1.477       .  S
O2568     Cr2577   2.002       .  S
O2568      C2576   1.265       .  A
O2569     Cr2577   1.986       .  S
O2569      C2570   1.258       .  A
C2570      O2571   1.256       .  A
C2570      C2810   1.469       .  S
O2571     Cr2578   1.986       .  S
O2572     Cr2578   2.001       .  S
O2572      C2573   1.268       .  A
C2573      O2574   1.266       .  A
C2573      C2750   1.474       .  S
O2574     Cr2579   2.000       .  S
O2575     Cr2579   1.994       .  S
O2575      C2576   1.266       .  A
C2576      C2754   1.486       .  S
Cr2577     O2580   1.785       .  S
Cr2578     O2580   1.773       .  S
Cr2579     O2580   1.777       .  S
O2581     Cr2599   2.011       .  S
O2581      C2589   1.264       .  A
O2582     Cr2599   1.965       .  S
O2582      C2583   1.257       .  A
C2583      O2584   1.274       .  A
C2583      C2741   1.480       .  S
O2584     Cr2600   2.025       .  S
O2585     Cr2600   1.979       .  S
O2585      C2586   1.260       .  A
C2586      O2587   1.268       .  A
O2587     Cr2601   2.030       .  S
O2588     Cr2601   1.971       .  S
O2588      C2589   1.260       .  A
C2589      C2729   1.475       .  S
O2590     Cr2599   1.974       .  S
O2590      C2598   1.258       .  A
O2591     Cr2599   2.007       .  S
O2591      C2592   1.264       .  A
C2592      O2593   1.260       .  A
C2592      C2777   1.478       .  S
O2593     Cr2600   1.980       .  S
O2594     Cr2600   2.032       .  S
O2594      C2595   1.270       .  A
C2595      O2596   1.259       .  A
C2595      C2734   1.471       .  S
O2596     Cr2601   1.964       .  S
O2597     Cr2601   2.036       .  S
O2597      C2598   1.272       .  A
C2598      C3145   1.489       .  S
Cr2599     O2602   1.784       .  S
Cr2600     O2602   1.778       .  S
Cr2601     O2602   1.768       .  S
O2603     Cr2621   2.008       .  S
O2603      C2611   1.266       .  A
O2604     Cr2621   1.997       .  S
O2604      C2605   1.260       .  A
C2605      O2606   1.257       .  A
C2605      C2758   1.466       .  S
O2606     Cr2622   1.988       .  S
O2607     Cr2622   1.963       .  S
O2607      C2608   1.264       .  A
C2608      O2609   1.272       .  A
O2609     Cr2623   2.025       .  S
O2610     Cr2623   1.959       .  S
O2610      C2611   1.255       .  A
C2611      C2730   1.470       .  S
O2612     Cr2621   1.976       .  S
O2612      C2620   1.257       .  A
O2613     Cr2621   2.014       .  S
O2613      C2614   1.269       .  A
C2614      O2615   1.261       .  A
C2614      C2726   1.458       .  S
O2615     Cr2622   1.952       .  S
O2616     Cr2622   1.995       .  S
O2616      C2617   1.258       .  A
C2617      O2618   1.254       .  A
C2617      C2798   1.461       .  S
O2618     Cr2623   1.977       .  S
O2619     Cr2623   2.015       .  S
O2619      C2620   1.268       .  A
C2620      C2753   1.485       .  S
Cr2621     O2624   1.774       .  S
Cr2622     O2624   1.769       .  S
Cr2623     O2624   1.769       .  S
O2625     Cr2643   1.974       .  S
O2625      C2633   1.253       .  A
O2626     Cr2643   2.012       .  S
O2626      C2627   1.273       .  A
C2627      O2628   1.258       .  A
C2627      C2854   1.459       .  S
O2628     Cr2644   1.951       .  S
O2629     Cr2644   1.980       .  S
O2629      C2630   1.258       .  A
C2630      O2631   1.264       .  A
O2631     Cr2645   2.012       .  S
O2632     Cr2645   2.007       .  S
O2632      C2633   1.263       .  A
C2633      C2794   1.486       .  S
O2634     Cr2643   2.008       .  S
O2634      C2642   1.267       .  A
O2635     Cr2643   1.966       .  S
O2635      C2636   1.251       .  A
C2636      O2637   1.252       .  A
C2636      C2717   1.469       .  S
O2637     Cr2644   1.990       .  S
O2638     Cr2644   1.986       .  S
O2638      C2639   1.265       .  A
C2639      O2640   1.269       .  A
C2639      C2733   1.468   1_554  S
O2640     Cr2645   2.010       .  S
O2641     Cr2645   1.987       .  S
O2641      C2642   1.267       .  A
C2642      C3258   1.491   1_554  S
Cr2643     O2646   1.785       .  S
Cr2644     O2646   1.789       .  S
Cr2645     O2646   1.777       .  S
O2647     Cr2665   1.988       .  S
O2647      C2655   1.256       .  A
O2648     Cr2665   2.031       .  S
O2648      C2649   1.276       .  A
C2649      O2650   1.259       .  A
C2649      C2770   1.476       .  S
O2650     Cr2666   1.960       .  S
O2651     Cr2666   1.961       .  S
O2651      C2652   1.256       .  A
C2652      O2653   1.262       .  A
O2653     Cr2667   2.000       .  S
O2654     Cr2667   1.996       .  S
O2654      C2655   1.259       .  A
C2655      C2833   1.483       .  S
O2656     Cr2665   2.029       .  S
O2656      C2664   1.274       .  A
O2657     Cr2665   1.979       .  S
O2657      C2658   1.255       .  A
C2658      O2659   1.250       .  A
C2658      C2714   1.464       .  S
O2659     Cr2666   1.974       .  S
O2660     Cr2666   1.995       .  S
O2660      C2661   1.264       .  A
C2661      O2662   1.267       .  A
C2661      C2749   1.473       .  S
O2662     Cr2667   2.005       .  S
O2663     Cr2667   1.968       .  S
O2663      C2664   1.264       .  A
C2664      C2765   1.492       .  S
Cr2665     O2668   1.779       .  S
Cr2666     O2668   1.782       .  S
Cr2667     O2668   1.778       .  S
O2669     Cr2687   2.012       .  S
O2669      C2677   1.263       .  A
O2670     Cr2687   1.996       .  S
O2670      C2671   1.259       .  A
C2671      O2672   1.254       .  A
C2671      C2818   1.469       .  S
O2672     Cr2688   1.986       .  S
O2673     Cr2688   1.971       .  S
O2673      C2674   1.267       .  A
C2674      O2675   1.267       .  A
O2675     Cr3097   1.998   1_554  S
O2676     Cr3097   1.965   1_554  S
O2676      C2677   1.253       .  A
C2677      C2745   1.475       .  S
O2678     Cr3095   1.987       .  S
O2678      C2686   1.263       .  A
O2679     Cr3095   2.020       .  S
O2679      C2680   1.271       .  A
C2680      O3089   1.264       .  A
C2680      C2789   1.475       .  S
O2681     Cr2688   1.970   1_556  S
O2681      C3088   1.265       .  A
O2682     Cr3096   2.000       .  S
O2682      C2683   1.257       .  A
C2683      O2684   1.259       .  A
C2683      C2838   1.462   1_655  S
O2684     Cr2689   1.973       .  S
O2685     Cr2689   2.003       .  S
O2685      C2686   1.264       .  A
C2686      C2821   1.482       .  S
Cr2687     O3086   1.969   1_554  S
Cr2687     O3087   2.022       .  S
Cr2687     O2690   1.780       .  S
Cr2688     O3090   1.992   1_554  S
Cr2688     O2690   1.779       .  S
Cr2689     O3083   1.995       .  S
Cr2689     O3084   1.961       .  S
Cr2689     O3098   1.763       .  S
O2690     Cr3097   1.771   1_554  S
O2691     Cr2709   2.025       .  S
O2691      C2699   1.271       .  A
O2692     Cr2709   2.004       .  S
O2692      C2693   1.264       .  A
C2693      O2694   1.257       .  A
C2693      C2742   1.477       .  S
O2694     Cr2710   1.988       .  S
O2695     Cr2710   1.971       .  S
O2695      C2696   1.263       .  A
C2696      O2697   1.264       .  A
C2696      C2713   1.465       .  S
O2697     Cr2711   2.000       .  S
O2698     Cr2711   1.955       .  S
O2698      C2699   1.256       .  A
C2699      C2813   1.474       .  S
O2700     Cr2709   1.999       .  S
O2700      C2708   1.263       .  A
O2701     Cr2709   2.022       .  S
O2701      C2702   1.271       .  A
C2702      O2703   1.259       .  A
C2702      C2722   1.465       .  S
O2703     Cr2710   1.957       .  S
O2704     Cr2710   1.996       .  S
O2704      C2705   1.261       .  A
C2705      O2706   1.258       .  A
C2705      C2762   1.461       .  S
O2706     Cr2711   1.979       .  S
O2707     Cr2711   1.997       .  S
O2707      C2708   1.259       .  A
C2708      C2738   1.485       .  S
Cr2709     O2712   1.772       .  S
Cr2710     O2712   1.771       .  S
Cr2711     O2712   1.771       .  S
C2713      C2714   1.336       .  D
C2713      H2715   1.087       .  S
C2714      H2716   1.087       .  S
C2717      C2718   1.341       .  D
C2717      H2719   1.087       .  S
C2721      C2722   1.342       .  D
C2721      H2723   1.086       .  S
C2722      H2724   1.088       .  S
C2725      C2726   1.347       .  D
C2726      H2728   1.087       .  S
C2729      C2730   1.343       .  D
C2729      H2731   1.086       .  S
C2730      H2732   1.088       .  S
C2733      H2735   1.088       .  S
C2734      H2736   1.089       .  S
C2737      C3006   1.483       .  S
C2737      C2738   1.343       .  D
C2737      H2739   1.087       .  S
C2738      H2740   1.087       .  S
C2741      C2742   1.339       .  D
C2741      H2743   1.087       .  S
C2742      H2744   1.087       .  S
C2745      C2746   1.341       .  D
C2745      H2747   1.088       .  S
C2746      H2748   1.086       .  S
C2749      H2751   1.087       .  S
C2750      H2752   1.087       .  S
C2753      C2754   1.344       .  D
C2753      H2755   1.087       .  S
C2754      H2756   1.087       .  S
C2757      C2969   1.479       .  S
C2757      C2758   1.343       .  D
C2757      H2759   1.086       .  S
C2758      H2760   1.087       .  S
C2761      C2762   1.346       .  D
C2761      H2763   1.088       .  S
C2762      H2764   1.088       .  S
C2765      C2766   1.350       .  D
C2765      H2767   1.086       .  S
C2766      H2768   1.087       .  S
C2769      C2770   1.341       .  D
C2769      H2771   1.087       .  S
C2770      H2772   1.087       .  S
C2773      C2774   1.351       .  D
C2773      H2775   1.087       .  S
C2777      C2778   1.348       .  D
C2777      H2779   1.087       .  S
C2778      H2780   1.086       .  S
C2781      C2782   1.348       .  D
C2781      H2783   1.087       .  S
C2782      H2784   1.086       .  S
C2785      C2786   1.342       .  D
C2785      H2787   1.087       .  S
C2789      C2790   1.348       .  D
C2789      H3199   1.088       .  S
C2790      H2792   1.086       .  S
H2791      C3197   1.087       .  S
C2793      C2794   1.340       .  D
C2793      H2795   1.087       .  S
C2794      H2796   1.087       .  S
C2797      H2799   1.088       .  S
C2798      H2800   1.088       .  S
C2801      C2802   1.342       .  D
C2801      H2803   1.087       .  S
C2802      H2804   1.087       .  S
C2805      C2925   1.468   1_554  S
C2805      C2806   1.338       .  D
C2805      H2807   1.087       .  S
C2806      H2808   1.087       .  S
C2809      C2810   1.340       .  D
C2810      H2812   1.087       .  S
C2813      C2814   1.343       .  D
C2813      H2815   1.087       .  S
C2814      H2816   1.086       .  S
C2817      C2818   1.340       .  D
C2817      H2819   1.087       .  S
C2818      H2820   1.087       .  S
C2821      C2822   1.344       .  D
C2821      H2823   1.087       .  S
C2822      H2824   1.087       .  S
C2825      C2826   1.342       .  D
C2825      H2827   1.088       .  S
C2826      H2828   1.088       .  S
C2829      C2830   1.343       .  D
C2829      H2831   1.087       .  S
C2830      H2832   1.087       .  S
C2833      C2834   1.349       .  D
C2833      H2835   1.087       .  S
C2834      H2836   1.086       .  S
C2837      H2839   1.088       .  S
C2838      H2840   1.087       .  S
C2841      C2842   1.356       .  D
C2841      H2843   1.087       .  S
C2845      C2846   1.346       .  D
C2846      H2848   1.088       .  S
C2849      C2850   1.339       .  D
C2849      H2851   1.087       .  S
C2850      C3050   1.479       .  S
C2850      H2852   1.087       .  S
C2853      C2854   1.339       .  D
C2853      H2855   1.087       .  S
C2854      H2856   1.087       .  S
O2857     Cr2875   2.017       .  S
O2857      C2865   1.264       .  A
O2858     Cr2875   1.972       .  S
O2858      C2859   1.254       .  A
C2859      O2860   1.261       .  A
C2859      C3261   1.462       .  S
O2860     Cr2876   1.988       .  S
O2861     Cr2876   1.963       .  S
O2861      C2862   1.262       .  A
C2862      O2863   1.273       .  A
O2863     Cr2877   2.029       .  S
O2864     Cr2877   1.975       .  S
O2864      C2865   1.257       .  A
C2865      C3242   1.486       .  S
O2866     Cr2875   1.950       .  S
O2866      C2874   1.255       .  A
O2867     Cr2875   2.028       .  S
O2867      C2868   1.271       .  A
C2868      O2869   1.261       .  A
C2868      C3249   1.468       .  S
O2869     Cr2876   1.958       .  S
O2870     Cr2876   1.997       .  S
O2870      C2871   1.256       .  A
C2871      O2872   1.261       .  A
C2871      C3245   1.470       .  S
O2872     Cr2877   1.988       .  S
O2873     Cr2877   2.045       .  S
O2873      C2874   1.276       .  A
C2874      C3257   1.484       .  S
Cr2875     O2878   1.782       .  S
Cr2876     O2878   1.772       .  S
Cr2877     O2878   1.770       .  S
O2879     Cr2897   2.031       .  S
O2879      C2887   1.273       .  A
O2880     Cr2897   1.959       .  S
O2880      C2881   1.252       .  A
C2881      O2882   1.268       .  A
C2881      C3225   1.469       .  S
O2882     Cr2898   2.011       .  S
O2883     Cr2898   1.949       .  S
O2883      C2884   1.254       .  A
C2884      O2885   1.269       .  A
C2884      C3237   1.467       .  S
O2885     Cr2899   2.029       .  S
O2886     Cr2899   1.948       .  S
O2886      C2887   1.253       .  A
C2887      C3222   1.475       .  S
O2888     Cr2897   1.964       .  S
O2888      C2896   1.254       .  A
O2889     Cr2897   2.031       .  S
O2889      C2890   1.273       .  A
C2890      O2891   1.259       .  A
C2890      C3254   1.475       .  S
O2891     Cr2898   1.960       .  S
O2892     Cr2898   2.036       .  S
O2892      C2893   1.269       .  A
C2893      O2894   1.254       .  A
C2893      C3233   1.473       .  S
O2894     Cr2899   1.967       .  S
O2895     Cr2899   2.016       .  S
O2895      C2896   1.268       .  A
C2896      C3230   1.477       .  S
Cr2897     O2900   1.775       .  S
Cr2898     O2900   1.770       .  S
Cr2899     O2900   1.770       .  S
O2901     Cr2919   2.016       .  S
O2901      C2909   1.265       .  A
O2902     Cr2919   1.976       .  S
O2902      C2903   1.262       .  A
C2903      O2904   1.261       .  A
C2903      C3214   1.465       .  S
O2904     Cr2920   1.992       .  S
O2905     Cr2920   1.973       .  S
O2905      C2906   1.263       .  A
C2906      O2907   1.269       .  A
O2907     Cr2921   2.025       .  S
O2908     Cr2921   1.979       .  S
O2908      C2909   1.261       .  A
C2909      C3201   1.484       .  S
O2910     Cr2919   1.976       .  S
O2910      C2918   1.257       .  A
O2911     Cr2919   2.001       .  S
O2911      C2912   1.265       .  A
C2912      O2913   1.258       .  A
C2912      C3238   1.457       .  S
O2913     Cr2920   1.963       .  S
O2914     Cr2920   1.996       .  S
O2914      C2915   1.261       .  A
C2915      O2916   1.257       .  A
C2915      C3205   1.458       .  S
O2916     Cr2921   1.971       .  S
O2917     Cr2921   2.024       .  S
O2917      C2918   1.270       .  A
C2918      C3210   1.487       .  S
Cr2919     O2922   1.773       .  S
Cr2920     O2922   1.776       .  S
Cr2921     O2922   1.762       .  S
O2923     Cr2941   2.022       .  S
O2923      C2931   1.269       .  A
O2924     Cr2941   1.959       .  S
O2924      C2925   1.253       .  A
C2925      O2926   1.267       .  A
O2926     Cr2942   2.010       .  S
O2927     Cr2942   1.957       .  S
O2927      C2928   1.257       .  A
C2928      O2929   1.271       .  A
C2928      C3198   1.477       .  S
O2929     Cr2943   2.034       .  S
O2930     Cr2943   1.968       .  S
O2930      C2931   1.258       .  A
C2931      C3189   1.481       .  S
O2932     Cr2941   1.965       .  S
O2932      C2940   1.255       .  A
O2933     Cr2941   2.026       .  S
O2933      C2934   1.269       .  A
C2934      O2935   1.256       .  A
C2934      C3193   1.465       .  S
O2935     Cr2942   1.949       .  S
O2936     Cr2942   2.025       .  S
O2936      C2937   1.267       .  A
C2937      O2938   1.257       .  A
C2937      C3234   1.476       .  S
O2938     Cr2943   1.974       .  S
O2939     Cr2943   2.026       .  S
O2939      C2940   1.270       .  A
C2940      C3209   1.484       .  S
Cr2941     O2944   1.782       .  S
Cr2942     O2944   1.772       .  S
Cr2943     O2944   1.769       .  S
O2945     Cr2963   2.017   1_554  S
O2945      C2953   1.266   1_554  A
O2946     Cr2963   1.980       .  S
O2946      C2947   1.258       .  A
C2947      O2948   1.267       .  A
C2947      C3177   1.480       .  S
O2948     Cr2964   2.003       .  S
O2949     Cr2964   1.980       .  S
O2949      C2950   1.262       .  A
C2950      O2951   1.266   1_556  A
C2950      C3186   1.487       .  S
O2952      C2953   1.261   1_554  A
C2953      C3190   1.486       .  S
O2954      C2962   1.264       .  A
O2955      C2956   1.267       .  A
C2956      O2957   1.259       .  A
C2956      C3181   1.484       .  S
O2958      C2959   1.268       .  A
C2959      O2960   1.258       .  A
C2959      C3169   1.467       .  S
O2960     Cr2965   1.969       .  S
O2961     Cr2965   2.023       .  S
O2961      C2962   1.268       .  A
C2962      C3174   1.496       .  S
Cr2965     O2966   1.768       .  S
O2967     Cr2985   1.990       .  S
O2967      C2975   1.257       .  A
O2968     Cr2985   2.024       .  S
O2968      C2969   1.274       .  A
C2969      O2970   1.265       .  A
O2970     Cr2986   1.956       .  S
O2971     Cr2986   2.005       .  S
O2971      C2972   1.261       .  A
C2972      O2973   1.260       .  A
O2973     Cr2987   2.001       .  S
O2974     Cr2987   1.985       .  S
O2974      C2975   1.260       .  A
C2975      C3154   1.486       .  S
O2976     Cr2985   2.022       .  S
O2976      C2984   1.272       .  A
O2977     Cr2985   2.003       .  S
O2977      C2978   1.257       .  A
C2978      O2979   1.255       .  A
C2978      C3218   1.484       .  S
O2979     Cr2986   1.991       .  S
O2980     Cr2986   1.990       .  S
O2980      C2981   1.264       .  A
C2981      O2982   1.268       .  A
C2981      C3158   1.469       .  S
O2982     Cr2987   1.994       .  S
O2983     Cr2987   1.970       .  S
O2983      C2984   1.259       .  A
C2984      C3162   1.485       .  S
Cr2985     O2988   1.793       .  S
Cr2986     O2988   1.779       .  S
Cr2987     O2988   1.781       .  S
O2989     Cr3007   1.981       .  S
O2989      C2997   1.254       .  A
O2990     Cr3007   2.030       .  S
O2990      C2991   1.275       .  A
C2991      O2992   1.264       .  A
C2991      C3149   1.486       .  S
O2992     Cr3008   1.964       .  S
O2993     Cr3008   1.981       .  S
O2993      C2994   1.257       .  A
C2994      O2995   1.257       .  A
O2995     Cr3009   1.995       .  S
O2996     Cr3009   1.977       .  S
O2996      C2997   1.257       .  A
C2997      C3137   1.474       .  S
O2998     Cr3007   2.024       .  S
O2998      C3006   1.273   1_556  A
O2999     Cr3007   1.999       .  S
O2999      C3000   1.257       .  A
C3000      O3001   1.255       .  A
C3000      C3185   1.484       .  S
O3001     Cr3008   1.994       .  S
O3002     Cr3008   2.001       .  S
O3002      C3003   1.270       .  A
C3003      O3004   1.268       .  A
C3003      C3142   1.475       .  S
O3004     Cr3009   1.993       .  S
O3005     Cr3009   1.965       .  S
O3005      C3006   1.259   1_556  A
Cr3007     O3010   1.788       .  S
Cr3008     O3010   1.778       .  S
Cr3009     O3010   1.780       .  S
O3011     Cr3029   2.012       .  S
O3011      C3019   1.266       .  A
O3012     Cr3029   1.995       .  S
O3012      C3013   1.263       .  A
C3013      O3014   1.260       .  A
C3013      C3166   1.467       .  S
O3014     Cr3030   1.992       .  S
O3015     Cr3030   1.979       .  S
O3015      C3016   1.264       .  A
C3016      O3017   1.261       .  A
O3017     Cr3031   1.997       .  S
O3018     Cr3031   1.968       .  S
O3018      C3019   1.258       .  A
C3019      C3138   1.470       .  S
O3020     Cr3029   1.997       .  S
O3020      C3028   1.263       .  A
O3021     Cr3029   2.006       .  S
O3021      C3022   1.267       .  A
C3022      O3023   1.259       .  A
C3022      C3134   1.466       .  S
O3023     Cr3030   1.967       .  S
O3024     Cr3030   1.999       .  S
O3024      C3025   1.262       .  A
C3025      O3026   1.261       .  A
C3025      C3206   1.462       .  S
O3026     Cr3031   1.976       .  S
O3027     Cr3031   2.005       .  S
O3027      C3028   1.262       .  A
C3028      C3161   1.487       .  S
Cr3029     O3032   1.771       .  S
Cr3030     O3032   1.772       .  S
Cr3031     O3032   1.766       .  S
O3033     Cr3051   2.024       .  S
O3033      C3041   1.268       .  A
O3034     Cr3051   1.962       .  S
O3034      C3035   1.257       .  A
C3035      O3036   1.263       .  A
C3035      C3262   1.458       .  S
O3036     Cr3052   2.000       .  S
O3037     Cr3052   1.950       .  S
O3037      C3038   1.257       .  A
C3038      O3039   1.272       .  A
O3039     Cr3053   2.033       .  S
O3040     Cr3053   1.968       .  S
O3040      C3041   1.256       .  A
C3041      C3202   1.480       .  S
O3042     Cr3051   1.961       .  S
O3042      C3050   1.255       .  A
O3043     Cr3051   2.018       .  S
O3043      C3044   1.270       .  A
C3044      O3045   1.261       .  A
C3044      C3125   1.467       .  S
O3045     Cr3052   1.962       .  S
O3046     Cr3052   2.026       .  S
O3046      C3047   1.264       .  A
C3047      O3048   1.255       .  A
C3047      C3141   1.473       .  S
O3048     Cr3053   1.970       .  S
O3049     Cr3053   2.025       .  S
O3049      C3050   1.272       .  A
Cr3051     O3054   1.773       .  S
Cr3052     O3054   1.770       .  S
Cr3053     O3054   1.762       .  S
O3055     Cr3073   1.990       .  S
O3055      C3063   1.253       .  A
O3056     Cr3073   2.028       .  S
O3056      C3057   1.275       .  A
C3057      O3058   1.257       .  A
C3057      C3178   1.469       .  S
O3058     Cr3074   1.951       .  S
O3059     Cr3074   1.989       .  S
O3059      C3060   1.264       .  A
C3060      O3061   1.260       .  A
O3061     Cr3075   1.986       .  S
O3062     Cr3075   1.991       .  S
O3062      C3063   1.256       .  A
C3063      C3241   1.483       .  S
O3064     Cr3073   2.045       .  S
O3064      C3072   1.279       .  A
O3065     Cr3073   1.991       .  S
O3065      C3066   1.256       .  A
C3066      O3067   1.255       .  A
C3066      C3122   1.477       .  S
O3067     Cr3074   1.982       .  S
O3068     Cr3074   1.993       .  S
O3068      C3069   1.262       .  A
C3069      O3070   1.264       .  A
C3069      C3157   1.472       .  S
O3070     Cr3075   2.005       .  S
O3071     Cr3075   1.963       .  S
O3071      C3072   1.262       .  A
C3072      C3173   1.489       .  S
Cr3073     O3076   1.789       .  S
Cr3074     O3076   1.782       .  S
Cr3075     O3076   1.783       .  S
O3077     Cr3095   2.026       .  S
O3077      C3085   1.267       .  A
O3078     Cr3095   1.992       .  S
O3078      C3079   1.263       .  A
C3079      O3080   1.257       .  A
C3079      C3226   1.470       .  S
O3080     Cr3096   1.989       .  S
O3081     Cr3096   1.978       .  S
O3081      C3082   1.263       .  A
C3082      O3083   1.264       .  A
O3084      C3085   1.254       .  A
C3085      C3153   1.478       .  S
O3086      C3094   1.258       .  A
O3087      C3088   1.273   1_554  A
C3088      C3197   1.472       .  S
O3089     Cr3096   1.976       .  S
O3090      C3091   1.254       .  A
C3091      O3092   1.260       .  A
C3091      C3246   1.472   1_655  S
O3092     Cr3097   1.989       .  S
O3093     Cr3097   2.009       .  S
O3093      C3094   1.269       .  A
C3094      C3229   1.479       .  S
Cr3095     O3098   1.776       .  S
Cr3096     O3098   1.779       .  S
O3099     Cr3117   2.001       .  S
O3099      C3107   1.259       .  A
O3100     Cr3117   2.001       .  S
O3100      C3101   1.265       .  A
C3101      O3102   1.264       .  A
C3101      C3150   1.473       .  S
O3102     Cr3118   2.003       .  S
O3103     Cr3118   1.962       .  S
O3103      C3104   1.260       .  A
C3104      O3105   1.270       .  A
C3104      C3121   1.483       .  S
O3105     Cr3119   2.031       .  S
O3106     Cr3119   1.990       .  S
O3106      C3107   1.263       .  A
C3107      C3221   1.480       .  S
O3108     Cr3117   1.979       .  S
O3108      C3116   1.261       .  A
O3109     Cr3117   2.004       .  S
O3109      C3110   1.263       .  A
C3110      O3111   1.258       .  A
C3110      C3130   1.456       .  S
O3111     Cr3118   1.956       .  S
O3112     Cr3118   2.011       .  S
O3112      C3113   1.264       .  A
C3113      O3114   1.258       .  A
C3113      C3170   1.472       .  S
O3114     Cr3119   1.978       .  S
O3115     Cr3119   2.024       .  S
O3115      C3116   1.273       .  A
C3116      C3146   1.489       .  S
Cr3117     O3120   1.778       .  S
Cr3118     O3120   1.767       .  S
Cr3119     O3120   1.764       .  S
C3121      C3122   1.348       .  D
C3121      H3123   1.086       .  S
C3122      H3124   1.087       .  S
C3125      C3126   1.341       .  D
C3125      H3127   1.088       .  S
C3129      C3130   1.349       .  D
C3129      H3131   1.086       .  S
C3130      H3132   1.087       .  S
C3133      C3134   1.341       .  D
C3134      H3136   1.088       .  S
C3137      C3138   1.344       .  D
C3137      H3139   1.086       .  S
C3138      H3140   1.088       .  S
C3141      H3143   1.089       .  S
C3142      H3144   1.086   1_556  S
C3145      C3146   1.347       .  D
C3145      H3147   1.087       .  S
C3146      H3148   1.086       .  S
C3149      C3150   1.348       .  D
C3149      H3151   1.086       .  S
C3150      H3152   1.087       .  S
C3153      C3154   1.345       .  D
C3153      H3155   1.087       .  S
C3154      H3156   1.086       .  S
C3157      H3159   1.087       .  S
C3158      H3160   1.087       .  S
C3161      C3162   1.344       .  D
C3161      H3163   1.087       .  S
C3162      H3164   1.087       .  S
C3165      C3166   1.340       .  D
C3165      H3167   1.087       .  S
C3166      H3168   1.087       .  S
C3169      C3170   1.344       .  D
C3169      H3171   1.087       .  S
C3170      H3172   1.088       .  S
C3173      C3174   1.348       .  D
C3173      H3175   1.087       .  S
C3174      H3176   1.086       .  S
C3177      C3178   1.343       .  D
C3177      H3179   1.087       .  S
C3178      H3180   1.087       .  S
C3181      C3182   1.352       .  D
C3181      H3183   1.087       .  S
C3185      C3186   1.346       .  D
C3185      H3187   1.087       .  S
C3186      H3188   1.086       .  S
C3189      C3190   1.348       .  D
C3189      H3191   1.087       .  S
C3190      H3192   1.086       .  S
C3193      C3194   1.346       .  D
C3193      H3195   1.087       .  S
C3197      C3198   1.347       .  D
C3198      H3200   1.086       .  S
C3201      C3202   1.345       .  D
C3201      H3203   1.086       .  S
C3202      H3204   1.087       .  S
C3205      H3207   1.089       .  S
C3206      H3208   1.089       .  S
C3209      C3210   1.344       .  D
C3209      H3211   1.087       .  S
C3210      H3212   1.087       .  S
C3213      C3214   1.336       .  D
C3213      H3215   1.087       .  S
C3214      H3216   1.087       .  S
C3217      C3218   1.351       .  D
C3218      H3220   1.087       .  S
C3221      C3222   1.339       .  D
C3221      H3223   1.086       .  S
C3222      H3224   1.088       .  S
C3225      C3226   1.338       .  D
C3225      H3227   1.087       .  S
C3226      H3228   1.087       .  S
C3229      C3230   1.342       .  D
C3229      H3231   1.087       .  S
C3230      H3232   1.087       .  S
C3233      C3234   1.346       .  D
C3233      H3235   1.087       .  S
C3234      H3236   1.088       .  S
C3237      C3238   1.344       .  D
C3237      H3239   1.087       .  S
C3238      H3240   1.087       .  S
C3241      C3242   1.350       .  D
C3241      H3243   1.087       .  S
C3242      H3244   1.086       .  S
C3245      H3247   1.087       .  S
C3246      H3248   1.087       .  S
C3249      C3250   1.349       .  D
C3249      H3251   1.087       .  S
C3253      C3254   1.343       .  D
C3254      H3256   1.088       .  S
C3257      C3258   1.343       .  D
C3257      H3259   1.088       .  S
C3258      H3260   1.086       .  S
C3261      C3262   1.340       .  D
C3261      H3263   1.087       .  S
C3262      H3264   1.087       .  S
