geometry optimzed in LAMMPS
_audit_creation_date              2020-12-01 
_audit_creation_method            'lammps2cif' 
_symmetry_space_group_name_H-M    'P1' 
_symmetry_Int_Tables_number       1 
_symmetry_cell_setting            triclinic 
loop_ 
_symmetry_equiv_pos_as_xyz 
  x,y,z 
_cell_length_a                    45.69862628 
_cell_length_b                    45.69923332582154 
_cell_length_c                    34.85744832637515 
_cell_angle_alpha                 89.99835896314693 
_cell_angle_beta                  90.00062592742403 
_cell_angle_gamma                 90.01196117741256 
loop_ 
_atom_site_label 
_atom_site_type_symbol 
_atom_site_fract_x 
_atom_site_fract_y 
_atom_site_fract_z 
_atom_site_charge 
O1          O  0.25346003  0.06984497  0.78295702    -0.78900
O2          O  0.27641435  0.01136108  0.92683259    -0.63600
O3          O  0.25507236  0.06921082  0.85625591    -1.10200
C4          C  0.35166745  0.10153481  0.86737866     1.08000
O5          O  0.29079310  0.04893078  0.96360480    -0.76800
O6          O  0.28692461  0.10398507  0.93198423    -0.64400
Ni7        Ni  0.22487124  0.06236147  0.82037636     1.34900
C8          C  0.28158002  0.12133066  0.90434765     0.86700
O9          O  0.22479750  0.02404638  0.89510411    -0.77300
O10         O  0.19693167  0.05453104  0.86044257    -0.87600
C11         C  0.27942036  0.02337267  0.95968085     0.86300
O12         O  0.23092493  0.02146578  0.81397710    -0.65800
O13         O  0.34413711  0.09788122  0.90267802    -0.85100
C14         C  0.25585846  0.00965056  0.81403050     0.87100
C15         C  0.20007126  0.03579159  0.88731536     1.08700
H16         H  0.31729514  0.03961960  0.87825068     0.40500
O17         O  0.30346296  0.05454509  0.88571200    -1.07700
O18         O  0.28981029  0.11583879  0.87063721    -0.64400
Ni19       Ni  0.29585305  0.07970119  0.84409687     1.26300
O20         O  0.27303625  0.01302159  0.84328787    -0.64600
O21         O  0.33656365  0.09125425  0.83924383    -0.76900
C22         C  0.26281624  0.09574733  0.78313900     0.86500
O23         O  0.28613469  0.10219277  0.80044621    -0.64100
Ni24       Ni  0.31630251  0.07325096  0.93135221     1.27400
Ni25       Ni  0.26469508  0.03855893  0.88901144     1.26100
H26         H  0.24690718  0.08418256  0.87254726     0.41100
O27         O  0.18162679  0.53756193  0.73187114    -0.78900
O28         O  0.23940645  0.49882475  0.58298972    -0.63600
O29         O  0.18573521  0.53103160  0.65299443    -1.10200
C30         C  0.14175250  0.43761253  0.64365385     1.08000
O31         O  0.19965541  0.49108309  0.54666672    -0.76800
O32         O  0.14356830  0.49639196  0.57407164    -0.64400
Ni33       Ni  0.19445239  0.03302235  0.69804758     1.34900
C34         C  0.12810297  0.50697787  0.60095518     0.86700
O35         O  0.23458087  0.03366918  0.62458482    -0.77300
O36         O  0.20395329  0.06135777  0.65916373    -0.87600
C37         C  0.22653804  0.49868697  0.55030218     0.86300
O38         O  0.23478445  0.54439150  0.69926867    -0.65800
O39         O  0.14821068  0.44151995  0.60810403    -0.85100
C40         C  0.24116584  0.51748172  0.69872459     0.87100
C41         C  0.22310768  0.05837299  0.63281878     1.08700
H42         H  0.20447105  0.46478514  0.63377175     0.40500
O43         O  0.19226787  0.48049172  0.62427839    -1.07700
O44         O  0.13490433  0.50471730  0.63576214    -0.64400
Ni45       Ni  0.16836510  0.49354133  0.66424364     1.26300
O46         O  0.23674729  0.50208574  0.66797953    -0.64600
O47         O  0.15028658  0.45505472  0.67056782    -0.76900
C48         C  0.15772942  0.52349695  0.73303717     0.86500
O49         O  0.14747361  0.50842338  0.70572872    -0.64100
Ni50       Ni  0.17406209  0.46721587  0.57865504     1.27400
Ni51       Ni  0.21491502  0.51546298  0.62113714     1.26100
H52         H  0.17357218  0.01147847  0.64478914     0.41100
O53         O  0.06976177  0.50456915  0.77924713    -0.78900
O54         O  0.00264201  0.48574154  0.91968079    -0.63600
O55         O  0.06410542  0.02511847  0.86207175    -1.10200
C56         C  0.09147168  0.40565251  0.86624555     1.08000
O57         O  0.03834519  0.46954624  0.95835308    -0.76800
O58         O  0.09387433  0.47069942  0.93118054    -0.64400
Ni59       Ni  0.05366987  0.05420050  0.82588010     1.34900
C60         C  0.11236687  0.47574558  0.90487150     0.86700
O61         O  0.01161823  0.04527753  0.89819658    -0.77300
O62         O  0.03743612  0.07843861  0.86569460    -0.87600
C63         C  0.01411406  0.48314389  0.95307527     0.86300
O64         O  0.01983961  0.52822817  0.80295711    -0.65800
O65         O  0.08679603  0.41332486  0.90133323    -0.85100
C66         C  0.00615266  0.50421269  0.80400619     0.87100
C67         C  0.01773546  0.07173044  0.88990181     1.08700
H68         H  0.03080205  0.44279085  0.87255650     0.40500
O69         O  0.04591158  0.45609214  0.88104656    -1.07700
O70         O  0.10827235  0.46721741  0.87095230    -0.64400
Ni71       Ni  0.07325839  0.46222991  0.84143013     1.26300
O72         O  0.00719764  0.48781543  0.83457419    -0.64600
O73         O  0.08299834  0.42120064  0.83766495    -0.76900
C74         C  0.09509841  0.49421579  0.78339469     0.86500
O75         O  0.09871743  0.47016377  0.80009591    -0.64100
Ni76       Ni  0.06223253  0.44252318  0.92808636     1.27400
Ni77       Ni  0.03124752  0.49551095  0.88234916     1.26100
H78         H  0.07708358  0.03536243  0.87933389     0.41100
O79         O  0.49567534  0.07381278  0.72520354    -0.78900
O80         O  0.47758227  0.01457629  0.57881394    -0.63600
O81         O  0.49491279  0.07267737  0.65148972    -1.10200
C82         C  0.39732469  0.10033971  0.64054696     1.08000
O83         O  0.46031292  0.05121843  0.54261027    -0.76800
O84         O  0.46199316  0.10524042  0.57486132    -0.64400
Ni85       Ni  0.04576587  0.05631382  0.70043160     1.34900
C86         C  0.46715112  0.12256601  0.60246312     0.86700
O87         O  0.03801518  0.01584588  0.62740448    -0.77300
O88         O  0.07082234  0.04200107  0.66025160    -0.87600
C89         C  0.47457523  0.02710087  0.54612415     0.86300
O90         O  0.52041532  0.02627892  0.69443978    -0.65800
O91         O  0.40469346  0.09722059  0.60498805    -0.85100
C92         C  0.49595865  0.01355140  0.69427160     0.87100
C93         C  0.06440197  0.02275546  0.63520031     1.08700
H94         H  0.43438581  0.04003572  0.62855792     0.40500
O95         O  0.44747255  0.05565185  0.62113684    -1.07700
O96         O  0.45797187  0.11747117  0.63585505    -0.64400
Ni97       Ni  0.45382975  0.08123908  0.66296654     1.26300
O98         O  0.47918042  0.01565296  0.66425175    -0.64600
O99         O  0.41288694  0.09034008  0.66820932    -0.76900
C100        C  0.48536019  0.09934626  0.72463923     0.86500
O101        O  0.46233280  0.10483018  0.70616451    -0.64100
Ni102      Ni  0.43353615  0.07383556  0.57553981     1.27400
Ni103      Ni  0.48699108  0.04167567  0.61836897     1.26100
H104        H  0.02815147  0.08082681  0.64704332     0.41100
O105        O  0.18262059  0.23018650  0.77498346    -0.78900
O106        O  0.24086667  0.27139815  0.92274871    -0.63600
O107        O  0.18718256  0.23853222  0.85346246    -1.10200
C108        C  0.14238933  0.33110260  0.86464889     1.08000
O109        O  0.20093546  0.27676511  0.95940121    -0.76800
O110        O  0.14481128  0.27020736  0.93117010    -0.64400
Ni111      Ni  0.19819229  0.20919616  0.81784743     1.34900
C112        C  0.12896170  0.26120245  0.90363607     0.86700
O113        O  0.23949732  0.21884711  0.89043690    -0.77300
O114        O  0.21374779  0.18537350  0.85851480    -0.87600
C115        C  0.22836752  0.27169692  0.95555807     0.86300
O116        O  0.23606985  0.22495130  0.80729118    -0.65800
O117        O  0.14828953  0.32591874  0.90001283    -0.85100
C118        C  0.24320135  0.25173498  0.80871738     0.87100
C119        C  0.23326315  0.19233470  0.88283171     1.08700
H120        H  0.20550328  0.30491169  0.87382619     0.40500
O121        O  0.19338983  0.28887240  0.88250953    -1.07700
O122        O  0.13583247  0.26487832  0.86905605    -0.64400
Ni123      Ni  0.16998463  0.27623674  0.84197559     1.26300
O124        O  0.23828241  0.26725814  0.83912119    -0.64600
O125        O  0.15179445  0.31492736  0.83673549    -0.76900
C126        C  0.15921471  0.24501775  0.77328839     0.86500
O127        O  0.14984256  0.26183948  0.79945713    -0.64100
Ni128      Ni  0.17459514  0.30035710  0.92838953     1.27400
Ni129      Ni  0.21628487  0.25417358  0.88550070     1.26100
H130        H  0.17397485  0.22839496  0.87050455     0.41100
O131        O  0.21432007  0.17940186  0.72880836    -0.78900
O132        O  0.26310151  0.24886072  0.58545702    -0.63600
O133        O  0.23024801  0.19421430  0.65420891    -1.10200
C134        C  0.32433781  0.15257216  0.64516314     1.08000
O135        O  0.26900856  0.20883655  0.54921213    -0.76800
O136        O  0.26352432  0.15244580  0.57878155    -0.64400
Ni137      Ni  0.19889759  0.20300675  0.68855980     1.34900
C138        C  0.25585373  0.13637837  0.60687782     0.86700
O139        O  0.21081517  0.24669601  0.61497805    -0.77300
O140        O  0.17743291  0.22589229  0.65207186    -0.87600
C141        C  0.26361939  0.23624816  0.55271169     0.86300
O142        O  0.21865267  0.23604003  0.70895942    -0.65800
O143        O  0.31886606  0.15772032  0.60972003    -0.85100
C144        C  0.24296445  0.24853962  0.70213381     0.87100
C145        C  0.18467778  0.24359539  0.62592454     1.08700
H146        H  0.29654938  0.21503763  0.63488536     0.40500
O147        O  0.28093413  0.20228803  0.62642717    -1.07700
O148        O  0.25966675  0.14394282  0.64111424    -0.64400
Ni149      Ni  0.26907668  0.17900928  0.66714150     1.26300
O150        O  0.25653395  0.24689413  0.66929343    -0.64600
O151        O  0.30848311  0.16266769  0.67295230    -0.76900
C152        C  0.23491519  0.16111189  0.73215270     0.86500
O153        O  0.25647594  0.15829193  0.70986161    -0.64100
Ni154      Ni  0.29293799  0.18319995  0.58086880     1.27400
Ni155      Ni  0.24575907  0.22401189  0.62236016     1.26100
H156        H  0.22134608  0.18054977  0.63663882     0.41100
O157        O  0.53122316  0.18489393  0.78161197    -0.78900
O158        O  0.48933772  0.24882352  0.92800727    -0.63600
O159        O  0.51991689  0.19328192  0.85926592    -1.10200
C160        C  0.42557594  0.15322007  0.86824768     1.08000
O161        O  0.48235990  0.20891184  0.96437170    -0.76800
O162        O  0.48730676  0.15251126  0.93503903    -0.64400
Ni163      Ni  0.02557371  0.19593710  0.81918061     1.34900
C164        C  0.49499811  0.13643285  0.90696186     0.86700
O165        O  0.02710970  0.23727789  0.89181760    -0.77300
O166        O  0.05406276  0.20575753  0.85748329    -0.87600
C167        C  0.48949931  0.23598316  0.96072715     0.86300
O168        O  0.53655892  0.23961424  0.81117528    -0.65800
O169        O  0.43119712  0.15807704  0.90388283    -0.85100
C170        C  0.51012787  0.24811335  0.81194275     0.87100
C171        C  0.05155469  0.22546999  0.88313718     1.08700
H172        H  0.45419769  0.21521248  0.87894976     0.40500
O173        O  0.46970884  0.20233079  0.88736789    -1.07700
O174        O  0.49017028  0.14354188  0.87286378    -0.64400
Ni175      Ni  0.48127681  0.17860011  0.84677761     1.26300
O176        O  0.49423470  0.24528479  0.84271351    -0.64600
O177        O  0.44179730  0.16294777  0.84067622    -0.76900
C178        C  0.51339345  0.16356827  0.77993895     0.86500
O179        O  0.49440409  0.15734200  0.80491195    -0.64100
Ni180      Ni  0.45779705  0.18334974  0.93295175     1.27400
Ni181      Ni  0.50539671  0.22349442  0.89052959     1.26100
H182        H  0.00332594  0.17703938  0.87301455     0.41100
O183        O  0.06975181  0.26212463  0.73076431    -0.78900
O184        O  0.00489856  0.28237779  0.58964175    -0.63600
O185        O  0.06532890  0.26366619  0.65807434    -1.10200
C186        C  0.09226294  0.36233164  0.64649371     1.08000
O187        O  0.04051374  0.30003760  0.55179021    -0.76800
O188        O  0.09615127  0.29809919  0.58062501    -0.64400
Ni189      Ni  0.06104323  0.23321031  0.69455736     1.34900
C190        C  0.11437752  0.29311137  0.60734346     0.86700
O191        O  0.02010873  0.23113188  0.62160426    -0.77300
O192        O  0.05172802  0.20447867  0.65618988    -0.87600
C193        C  0.01581505  0.28716479  0.55643598     0.86300
O194        O  0.02052144  0.23841382  0.70465816    -0.65800
O195        O  0.08832751  0.35476814  0.61132274    -0.85100
C196        C  0.50828983  0.24897532  0.70040691     0.87100
C197        C  0.03166771  0.20656296  0.63091072     1.10300
H198        H  0.03212282  0.32437565  0.63788252     0.40500
O199        O  0.04754418  0.31143681  0.62950402    -1.07700
O200        O  0.10970260  0.30117855  0.64131968    -0.64400
Ni201      Ni  0.07419849  0.30518217  0.66988422     1.26300
O202        O  0.00854343  0.27904582  0.67324942    -0.64600
O203        O  0.08349124  0.34648123  0.67474807    -0.76900
C204        C  0.09516002  0.27234560  0.72721774     0.86500
O205        O  0.09883168  0.29699486  0.71211376    -0.64100
Ni206      Ni  0.06430659  0.32608086  0.58341727     1.27400
Ni207      Ni  0.03338364  0.27178710  0.62661695     1.26100
H208        H  0.08024305  0.25624416  0.64115657     0.41100
O209        O  0.23061216  0.30547777  0.45944860    -0.78900
O210        O  0.24249194  0.35465004  0.29859538    -0.63600
O211        O  0.21668180  0.31210239  0.38304563    -1.10200
C212        C  0.31408608  0.27374621  0.38285699     1.08000
O213        O  0.27268811  0.32037429  0.27465730    -0.76800
O214        O  0.28139110  0.26807596  0.30936937    -0.64400
Ni215      Ni  0.20616512  0.33156349  0.42892355     1.34900
C216        C  0.25455676  0.26153373  0.30900553     0.86700
O217        O  0.18976908  0.35371772  0.33761314    -0.77300
O218        O  0.17967537  0.35733013  0.40113403    -0.87600
C219        C  0.25959530  0.34481381  0.27300762     0.86300
O220        O  0.23576468  0.36242786  0.43005146    -0.65800
O221        O  0.32046852  0.29308871  0.35790090    -0.85100
C222        C  0.24421424  0.37797610  0.40173328     0.87100
C223        C  0.17410011  0.36344828  0.36593649     1.08700
H224        H  0.27681391  0.33151554  0.36956827     0.40500
O225        O  0.26656860  0.31811588  0.35285668    -1.07700
O226        O  0.23842401  0.26673975  0.33889825    -0.64400
Ni227      Ni  0.25163129  0.28921711  0.38542508     1.26300
O228        O  0.24053312  0.36992806  0.36758308    -0.64600
O229        O  0.28765593  0.26667053  0.39027523    -0.76900
C230        C  0.23514488  0.27784496  0.45617096     0.86500
O231        O  0.23506806  0.26491124  0.42358315    -0.64100
Ni232      Ni  0.29560914  0.30683832  0.31701226     1.27400
Ni233      Ni  0.22859310  0.33521380  0.34189368     1.26100
H234        H  0.20051066  0.29985882  0.37506598     0.41100
O235        O  0.29859079  0.23889232  0.04694552    -0.78900
O236        O  0.35054431  0.24945498  0.20635934    -0.63600
O237        O  0.30619686  0.22439776  0.12308873    -1.10200
C238        C  0.26799792  0.32141180  0.12488379     1.08000
O239        O  0.31816530  0.28117784  0.23140891    -0.76800
O240        O  0.26466763  0.28864452  0.19991730    -0.64400
Ni241      Ni  0.32514365  0.21449185  0.07661104     1.34900
C242        C  0.25697379  0.26204950  0.19880064     0.86700
O243        O  0.34748605  0.19691149  0.16748304    -0.77300
O244        O  0.35129862  0.18798631  0.10363922    -0.87600
C245        C  0.34213057  0.26719081  0.23199959     0.86300
O246        O  0.35533319  0.24465323  0.07525863    -0.65800
O247        O  0.28777671  0.32789387  0.14911174    -0.85100
C248        C  0.37138535  0.25230515  0.10338373     0.87100
C249        C  0.35679652  0.18150629  0.13874713     1.08700
H250        H  0.32639007  0.28419150  0.13623492     0.40500
O251        O  0.31316759  0.27410998  0.15333194    -1.07700
O252        O  0.26164610  0.24631473  0.16836867    -0.64400
Ni253      Ni  0.28360773  0.25935041  0.12150192     1.26300
O254        O  0.36428405  0.24730751  0.13751750    -0.64600
O255        O  0.26098497  0.29506716  0.11749479    -0.76900
C256        C  0.27104014  0.24332156  0.05106643     0.86500
O257        O  0.25865054  0.24299426  0.08399065    -0.64100
Ni258      Ni  0.30294502  0.30333004  0.18937095     1.27400
Ni259      Ni  0.32985945  0.23595264  0.16382613     1.26100
H260        H  0.29399365  0.20818853  0.13103647     0.41100
O261        O  0.29835863  0.02587583  0.46595903    -0.78900
O262        O  0.34715081  0.01417451  0.30425249    -0.63600
O263        O  0.30478604  0.03955405  0.38917290    -1.10200
C264        C  0.27994237  0.45728439  0.38093709     1.08000
O265        O  0.31460510  0.98165702  0.28111505    -0.76800
O266        O  0.26228911  0.97406460  0.31581853    -0.64400
Ni267      Ni  0.32468663  0.04975483  0.43472833     1.34900
C268        C  0.25631480  0.00101654  0.31415222     0.86700
O269        O  0.34483393  0.06664324  0.34249536    -0.77300
O270        O  0.35086932  0.07565338  0.40600405    -0.87600
C271        C  0.33770424  0.99693153  0.27867041     0.86300
O272        O  0.35398108  0.01881061  0.43523525    -0.65800
O273        O  0.30037986  0.45514658  0.35611852    -0.85100
C274        C  0.36970232  0.01117422  0.40681760     0.87100
C275        C  0.35538944  0.08193472  0.37048584     1.08700
H276        H  0.32503758  0.97987085  0.37634885     0.40500
O277        O  0.31152549  0.98964520  0.35932018    -1.07700
O278        O  0.26057400  0.01749207  0.34406401    -0.64400
Ni279      Ni  0.28228240  0.00460331  0.39147315     1.26300
O280        O  0.36265746  0.01688143  0.37284391    -0.64600
O281        O  0.26836398  0.48191852  0.38988482    -0.76900
C282        C  0.27102020  0.01973484  0.46264115     0.86500
O283        O  0.25787180  0.02067537  0.43011055    -0.64100
Ni284      Ni  0.31083623  0.48417062  0.31840868     1.27400
Ni285      Ni  0.32759746  0.02773327  0.34763455     1.26100
H286        H  0.29243767  0.05572082  0.38152812     0.41100
O287        O  0.21171776  0.46556084  0.04844637    -0.78900
O288        O  0.21384479  0.40685783  0.20795391    -0.63600
O289        O  0.19883975  0.45846925  0.12598868    -1.10200
C290        C  0.30239395  0.47562717  0.12776681     1.08000
O291        O  0.24816831  0.43607754  0.22838704    -0.76800
O292        O  0.27031271  0.48624106  0.20338375    -0.64400
Ni293      Ni  0.18554138  0.44132023  0.07941073     1.34900
C294        C  0.25962367  0.00005980  0.20180136     0.86700
O295        O  0.16455205  0.42179115  0.17045112    -0.77300
O296        O  0.15697961  0.41664455  0.10685614    -0.87600
C297        C  0.23790811  0.41068652  0.22457152     0.86300
O298        O  0.21448811  0.41026980  0.07713593    -0.65800
O299        O  0.30510241  0.45610434  0.15365301    -0.85100
C300        C  0.21944937  0.39210244  0.10389208     0.87100
C301        C  0.14921706  0.41265147  0.14201859     1.08700
H302        H  0.25450582  0.42691102  0.13833520     0.40500
O303        O  0.24660290  0.44153230  0.15529966    -1.07700
O304        O  0.24354769  0.99572741  0.17158011    -0.64400
Ni305      Ni  0.23802704  0.47340864  0.12390066     1.26300
O306        O  0.21036974  0.39643307  0.13747600    -0.64600
O307        O  0.27791348  0.48737506  0.11938097    -0.76900
C308        C  0.22438017  0.49032350  0.05338064     0.86500
O309        O  0.22756007  0.50169265  0.08665091    -0.64100
Ni310      Ni  0.27668070  0.44596876  0.19207654     1.27400
Ni311      Ni  0.20545226  0.43176647  0.16622155     1.26100
H312        H  0.18541030  0.47353632  0.13413256     0.41100
O313        O  0.01989043  0.30330684  0.04841018    -0.78900
O314        O  0.00564915  0.35652553  0.20770564    -0.63600
O315        O  0.03183014  0.31133988  0.12548574    -1.10200
C316        C  0.44897708  0.28644405  0.12951564     1.08000
O317        O  0.97498515  0.32342195  0.23339781    -0.76800
O318        O  0.96722171  0.27040117  0.20102183    -0.64400
Ni319      Ni  0.04413697  0.32921289  0.07929351     1.34900
C320        C  0.99410852  0.26395853  0.20133732     0.86700
O321        O  0.05844149  0.35311022  0.17068272    -0.77300
O322        O  0.07010186  0.35534801  0.10753366    -0.87600
C323        C  0.98967340  0.34691562  0.23460726     0.86300
O324        O  0.01468317  0.35948921  0.07552198    -0.65800
O325        O  0.44627732  0.30557147  0.15599698    -0.85100
C326        C  0.00542928  0.37569024  0.10251819     0.87100
C327        C  0.07495428  0.36180912  0.14283675     1.08700
H328        H  0.49663612  0.33447439  0.14236973     0.40500
O329        O  0.98173948  0.31885052  0.15485006    -1.07700
O330        O  0.00989020  0.26781137  0.17079343    -0.64400
Ni331      Ni  0.99664126  0.28904782  0.12342348     1.26300
O332        O  0.00878411  0.36938711  0.13736987    -0.64600
O333        O  0.47353390  0.27447866  0.12141535    -0.76900
C334        C  0.01239297  0.27645828  0.05257367     0.86500
O335        O  0.01259900  0.26387914  0.08548229    -0.64100
Ni336      Ni  0.47468137  0.31395101  0.19532723     1.27400
Ni337      Ni  0.01964302  0.33556959  0.16559388     1.26100
H338        H  0.04760200  0.29903022  0.13456180     0.41100
O339        O  0.45950604  0.21889545  0.46348335    -0.78900
O340        O  0.40273071  0.22177627  0.30342918    -0.63600
O341        O  0.45275624  0.20511114  0.38629220    -1.10200
C342        C  0.47168481  0.30806629  0.38623692     1.08000
O343        O  0.43339933  0.25529529  0.28349510    -0.76800
O344        O  0.48329460  0.27679400  0.31122294    -0.64400
Ni345      Ni  0.43483001  0.19284254  0.43273021     1.34900
C346        C  0.49551826  0.25200521  0.31169063     0.86700
O347        O  0.41565483  0.17163130  0.34155412    -0.77300
O348        O  0.41011999  0.16436717  0.40526326    -0.87600
C349        C  0.40780027  0.24520487  0.28568045     0.86300
O350        O  0.40380559  0.22215260  0.43395672    -0.65800
O351        O  0.45232868  0.31125682  0.36020017    -0.85100
C352        C  0.38599149  0.22705526  0.40666743     0.87100
C353        C  0.40623533  0.15646895  0.37011818     1.08700
H354        H  0.42270623  0.26137969  0.37401904     0.40500
O355        O  0.43725465  0.25325238  0.35699894    -1.07700
O356        O  0.49314567  0.23523649  0.34158460    -0.64400
Ni357      Ni  0.46882854  0.24379143  0.38840568     1.26300
O358        O  0.39102640  0.21810633  0.37323159    -0.64600
O359        O  0.48375274  0.28345013  0.39332198    -0.76900
C360        C  0.48506541  0.23000432  0.45865816     0.86500
O361        O  0.49674446  0.23231298  0.42546676    -0.64100
Ni362      Ni  0.44278147  0.28343230  0.32072255     1.27400
Ni363      Ni  0.42670658  0.21242270  0.34567148     1.26100
H364        H  0.46748064  0.19116510  0.37853255     0.41100
O365        O  0.03699441  0.47340113  0.45925820    -0.78900
O366        O  0.03827013  0.40947476  0.30297927    -0.63600
O367        O  0.05078506  0.46424983  0.38210069    -1.10200
C368        C  0.43295249  0.49119387  0.39017902     1.08000
O369        O  0.00250728  0.43649872  0.28132884    -0.76800
O370        O  0.97713017  0.48583436  0.30429167    -0.64400
Ni371      Ni  0.06417235  0.44863764  0.42959575     1.34900
C372        C  0.99152631  0.99777314  0.31443930     0.86700
O373        O  0.08676949  0.42732528  0.33967112    -0.77300
O374        O  0.09355315  0.42330295  0.40349461    -0.87600
C375        C  0.01421281  0.41179699  0.28590164     0.86300
O376        O  0.03550500  0.41729461  0.43267381    -0.65800
O377        O  0.42570352  0.47126870  0.36665529    -0.85100
C378        C  0.03177389  0.39808160  0.40684481     0.87100
C379        C  0.10168382  0.41828029  0.36854513     1.08700
H380        H  0.46952013  0.43024738  0.37999656     0.40500
O381        O  0.00392225  0.44419926  0.35376521    -1.07700
O382        O  0.00675319  0.99457566  0.34566816    -0.64400
Ni383      Ni  0.01079733  0.47744786  0.38318409     1.26300
O384        O  0.04220734  0.40136106  0.37379222    -0.64600
O385        O  0.45948775  0.49671624  0.39819584    -0.76900
C386        C  0.02253902  0.49710659  0.45301268     0.86500
O387        O  0.01949444  0.50744722  0.41907871    -0.64100
Ni388      Ni  0.44863670  0.45278593  0.32712491     1.27400
Ni389      Ni  0.04550045  0.43597267  0.34327818     1.26100
H390        H  0.06365780  0.47962988  0.37340741     0.41100
O391        O  0.45942188  0.04320089  0.04059387    -0.78900
O392        O  0.39737744  0.04024420  0.19683128    -0.63600
O393        O  0.45136855  0.05602819  0.11802689    -1.10200
C394        C  0.48155942  0.43994344  0.12973913     1.08000
O395        O  0.42600834  0.00613673  0.22012385    -0.76800
O396        O  0.47673948  0.98445070  0.19601560    -0.64400
Ni397      Ni  0.43470201  0.06931711  0.07111277     1.34900
C398        C  0.49019300  0.00862428  0.19482403     0.86700
O399        O  0.41458733  0.09013907  0.16212405    -0.77300
O400        O  0.40964989  0.09798885  0.09851180    -0.87600
C401        C  0.40103061  0.01743147  0.21634907     0.86300
O402        O  0.40426417  0.03957194  0.06819274    -0.65800
O403        O  0.46161244  0.43309030  0.15355268    -0.85100
C404        C  0.38585873  0.03494097  0.09469978     0.87100
C405        C  0.40579337  0.10578852  0.13381379     1.08700
H406        H  0.41908602  0.00030821  0.12876972     0.40500
O407        O  0.43333707  0.00820574  0.14633459    -1.07700
O408        O  0.48948173  0.02474382  0.16411027    -0.64400
Ni409      Ni  0.46606514  0.01676283  0.11630748     1.26300
O410        O  0.38918455  0.04603393  0.12723197    -0.64600
O411        O  0.48852238  0.46640204  0.12279704    -0.76900
C412        C  0.48376287  0.02982572  0.04604182     0.86500
O413        O  0.49494173  0.02701830  0.07957031    -0.64100
Ni414      Ni  0.44652954  0.45702872  0.19439026     1.27400
Ni415      Ni  0.42384318  0.04920092  0.15726357     1.26100
H416        H  0.46630201  0.06944767  0.12664068     0.41100
C417        C  0.00284329  0.00915636  0.24236288    -0.11300
C418        C  0.00322763  0.00874282  0.27773820    -0.12800
C419        C  0.99874913  0.35160303  0.40310013    -0.11300
C420        C  0.01359659  0.37257076  0.41182689    -0.12800
C421        C  0.99083141  0.40300887  0.09558741    -0.11300
C422        C  0.97966131  0.42631545  0.10298718    -0.12800
C423        C  0.99761818  0.38629497  0.28119048    -0.11300
C424        C  0.98913196  0.36425060  0.26743113    -0.12800
C425        C  0.00539843  0.25531270  0.23953275    -0.11300
C426        C  0.00495405  0.25585712  0.27500833    -0.12800
C427        C  0.12248977  0.39571900  0.14912476    -0.11300
C428        C  0.10054320  0.38035035  0.15008276    -0.12800
C429        C  0.36130380  0.01537563  0.09145391    -0.11300
C430        C  0.34118086  0.00076848  0.10357261    -0.12800
C431        C  0.38917301  0.12969060  0.36335996    -0.11300
C432        C  0.37380566  0.10767966  0.36304344    -0.12800
C433        C  0.42015440  0.98534999  0.39997556    -0.11300
C434        C  0.39714935  0.99588600  0.41053334    -0.12800
C435        C  0.35486808  0.99541824  0.24580704    -0.11300
C436        C  0.37612394  0.00247518  0.22889604    -0.12800
C437        C  0.24816168  0.01139882  0.27518674    -0.11300
C438        C  0.24865178  0.01035229  0.23964161    -0.12800
C439        C  0.38945027  0.13286014  0.14158200    -0.11300
C440        C  0.37475652  0.15521939  0.14436942    -0.12800
C441        C  0.39942136  0.26664137  0.09920380    -0.11300
C442        C  0.42282215  0.27658336  0.10954075    -0.12800
C443        C  0.36139168  0.27041220  0.26269552    -0.11300
C444        C  0.38371167  0.26290023  0.27676701    -0.12800
C445        C  0.25170651  0.34494502  0.10700614    -0.11300
C446        C  0.23703677  0.36616222  0.09879181    -0.12800
C447        C  0.14891520  0.38315048  0.35978425    -0.11300
C448        C  0.12779836  0.39983084  0.36189298    -0.12800
C449        C  0.33788946  0.25812673  0.40162245    -0.11300
C450        C  0.35949924  0.24421127  0.41080903    -0.12800
C451        C  0.25801640  0.40651801  0.40599226    -0.11300
C452        C  0.26837790  0.43037370  0.39788830    -0.12800
C453        C  0.25600240  0.38608074  0.22888475    -0.11300
C454        C  0.26342195  0.36320849  0.24148567    -0.12800
C455        C  0.24384798  0.25142715  0.27114457    -0.11300
C456        C  0.24533759  0.25095228  0.23570841    -0.12800
C457        C  0.00230559  0.27459561  0.52281207    -0.11300
C458        C  0.49858421  0.24392899  0.49139282    -0.12800
C459        C  0.50242729  0.25010540  0.99381820    -0.11300
C460        C  0.99917024  0.26240146  0.01964386    -0.12800
C461        C  0.49921738  0.25870406  0.77435223    -0.11300
C462        C  0.49913844  0.25943902  0.73884887    -0.12800
C463        C  0.25383674  0.25157271  0.51907687    -0.11300
C464        C  0.24461485  0.26245753  0.48991504    -0.12800
C465        C  0.14078299  0.27640617  0.60160777    -0.11300
C466        C  0.16199556  0.26150128  0.60895443    -0.12800
C467        C  0.25514323  0.25291472  0.01789668    -0.11300
C468        C  0.24396500  0.26211790  0.98897389    -0.12800
C469        C  0.11943465  0.25348344  0.72837899    -0.11300
C470        C  0.14158972  0.24385115  0.74061605    -0.12800
C471        C  0.07785637  0.23622813  0.90129543    -0.11300
C472        C  0.10133572  0.24678702  0.90949617    -0.12800
C473        C  0.25432394  0.26350438  0.77213753    -0.11300
C474        C  0.25485333  0.26247297  0.73681624    -0.12800
C475        C  0.34963018  0.13358481  0.65215014    -0.11300
C476        C  0.37105241  0.11759118  0.64937560    -0.12800
C477        C  0.00375734  0.00133878  0.49692460    -0.11300
C478        C  0.49093154  0.01651441  0.51271774    -0.12800
C479        C  0.48546906  0.14805665  0.59839745    -0.11300
C480        C  0.50120410  0.16848584  0.60649124    -0.12800
C481        C  0.51349487  0.14445101  0.74867979    -0.11300
C482        C  0.50337821  0.12312502  0.73448840    -0.12800
C483        C  0.10838373  0.37876607  0.85924100    -0.11300
C484        C  0.12373819  0.35675865  0.85766501    -0.12800
C485        C  0.00256074  0.49944174  0.98554871    -0.11300
C486        C  0.49569890  0.01382102  0.01356651    -0.12800
C487        C  0.49288145  0.50135616  0.74525817    -0.11300
C488        C  0.49473297  0.50107460  0.78058801    -0.12800
C489        C  0.50964698  0.10861656  0.91082571    -0.11300
C490        C  0.52016583  0.08581432  0.89933768    -0.12800
C491        C  0.12359294  0.41189313  0.65256629    -0.11300
C492        C  0.10865909  0.38956016  0.65332987    -0.12800
C493        C  0.24050024  0.51153063  0.51705287    -0.11300
C494        C  0.25678427  0.00706376  0.49590086    -0.12800
C495        C  0.10083580  0.52161917  0.59416720    -0.11300
C496        C  0.08810570  0.00714519  0.61659596    -0.12800
C497        C  0.11956182  0.51257083  0.77983185    -0.11300
C498        C  0.14095865  0.52295045  0.76642145    -0.12800
C499        C  0.23332009  0.08431304  0.61289853    -0.11300
C500        C  0.24282276  0.10783129  0.60253745    -0.12800
C501        C  0.37796724  0.11929031  0.86011568    -0.11300
C502        C  0.39974930  0.13502240  0.86014545    -0.12800
C503        C  0.25389962  0.00007469  0.02113506    -0.11300
C504        C  0.26615858  0.00994963  0.99306951    -0.12800
C505        C  0.17418520  0.02605606  0.90795201    -0.11300
C506        C  0.13850141  0.49284651  0.91113462    -0.12800
C507        C  0.23392056  0.14054718  0.76159100    -0.11300
C508        C  0.24366674  0.11877186  0.77471246    -0.12800
C509        C  0.26454516  0.14773847  0.90878177    -0.11300
C510        C  0.25002380  0.16908647  0.90063625    -0.12800
C511        C  0.25126967  0.50505709  0.77181526    -0.11300
C512        C  0.25071681  0.50562428  0.73631084    -0.12800
O513        O  0.22205734  0.57382930  0.77937195    -0.78900
O514        O  0.26270006  0.51331647  0.92539524    -0.63600
O515        O  0.23073848  0.56885889  0.85773300    -1.10200
C516        C  0.32457308  0.61108100  0.86634833     1.08000
O517        O  0.27140672  0.55251099  0.96238348    -0.76800
O518        O  0.26620074  0.60908974  0.93582266    -0.64400
Ni519      Ni  0.20058594  0.55934627  0.82258713     1.34900
C520        C  0.25642182  0.62542551  0.90922976     0.86700
O521        O  0.20987374  0.51684508  0.89363852    -0.77300
O522        O  0.17682390  0.54471585  0.86392113    -0.87600
C523        C  0.26357541  0.52574823  0.95836515     0.86300
O524        O  0.21421631  0.52076408  0.81192486    -0.65800
O525        O  0.32058736  0.60421550  0.90165410    -0.85100
C526        C  0.24096799  0.51382424  0.81050241     0.87100
C527        C  0.18347182  0.52429011  0.88713745     1.08700
H528        H  0.29681327  0.54820596  0.87502843     0.40500
O529        O  0.28144230  0.56068181  0.88487504    -1.07700
O530        O  0.25866546  0.61900885  0.87428422    -0.64400
Ni531      Ni  0.26854546  0.58523860  0.84550193     1.26300
O532        O  0.25755816  0.51740004  0.84038577    -0.64600
O533        O  0.30739664  0.60264242  0.83901125    -0.76900
C534        C  0.23752076  0.59683622  0.77748408     0.86500
O535        O  0.25373478  0.60643611  0.80413814    -0.64100
Ni536      Ni  0.29509334  0.57828095  0.93066000     1.27400
Ni537      Ni  0.24599110  0.53881087  0.88841695     1.26100
H538        H  0.22127047  0.58202632  0.87544466     0.41100
O539        O  0.18521574  0.00441034  0.73466979    -0.78900
O540        O  0.24681108  0.98297744  0.59067193    -0.63600
O541        O  0.18835931  0.00316701  0.66131033    -1.10200
C542        C  0.15683806  0.90629829  0.64711253     1.08000
O543        O  0.20920233  0.96940182  0.55340416    -0.76800
O544        O  0.15391569  0.97184984  0.58396922    -0.64400
Ni545      Ni  0.19669757  0.55972917  0.68959112     1.34900
C546        C  0.13646885  0.97682452  0.61160139     0.86700
O547        O  0.23772861  0.55109262  0.61656223    -0.77300
O548        O  0.21200092  0.58421150  0.64940040    -0.87600
C549        C  0.23469536  0.98077866  0.55768412     0.86300
O550        O  0.23497325  0.02600591  0.70642209    -0.65800
O551        O  0.16081369  0.91425300  0.61203177    -0.85100
C552        C  0.24690418  0.00111638  0.70536102     0.87100
C553        C  0.23146713  0.57752080  0.62480897     1.08700
H554        H  0.21816343  0.94130281  0.63817351     0.40500
O555        O  0.20333523  0.95525538  0.63078431    -1.07700
O556        O  0.14194299  0.96839318  0.64517198    -0.64400
Ni557      Ni  0.17774016  0.96216007  0.67213608     1.26300
O558        O  0.24428879  0.98474491  0.67511121    -0.64600
O559        O  0.16640107  0.92131863  0.67575175    -0.76900
C560        C  0.15946540  0.99474104  0.73240187     0.86500
O561        O  0.15428972  0.97109503  0.71521228    -0.64100
Ni562      Ni  0.18515294  0.94296589  0.58448809     1.27400
Ni563      Ni  0.21947462  0.99398877  0.62892506     1.26100
H564        H  0.17266056  0.54138427  0.63602172     0.41100
O565        O  0.06993452  0.03263242  0.78391071    -0.78900
O566        O  0.00973076  0.99252879  0.93047974    -0.63600
O567        O  0.06365450  0.50355407  0.85182321    -1.10200
C568        C  0.10877181  0.93240964  0.87518975     1.08000
O569        O  0.04949677  0.98779465  0.96767420    -0.76800
O570        O  0.10652693  0.99376049  0.94082571    -0.64400
Ni571      Ni  0.06009534  0.53368957  0.81500551     1.34900
C572        C  0.12250156  0.00252460  0.91320031     0.86700
O573        O  0.01767837  0.53560493  0.88633323    -0.77300
O574        O  0.05002115  0.56245715  0.85339590    -0.87600
C575        C  0.02196906  0.99211457  0.96345238     0.86300
O576        O  0.01584280  0.03879076  0.81426407    -0.65800
O577        O  0.10251842  0.93789479  0.91033863    -0.85100
C578        C  0.00755785  0.01239482  0.81653756     0.87100
C579        C  0.03018113  0.55992205  0.87900787     1.08700
H580        H  0.04561114  0.95881083  0.88249362     0.40500
O581        O  0.05761386  0.97492224  0.89126022    -1.07700
O582        O  0.11536808  0.99891922  0.87877782    -0.64400
Ni583      Ni  0.08160008  0.98734859  0.85128517     1.26300
O584        O  0.01253362  0.99686794  0.84700569    -0.64600
O585        O  0.09992663  0.94857005  0.84690671    -0.76900
C586        C  0.09412218  0.01901795  0.78364226     0.86500
O587        O  0.10271541  0.00171277  0.80965057    -0.64100
Ni588      Ni  0.07614589  0.96391437  0.93768917     1.27400
Ni589      Ni  0.03464456  0.00970724  0.89360970     1.26100
H590        H  0.07809268  0.51130278  0.86917524     0.41100
O591        O  0.52251846  0.57045447  0.74209122    -0.78900
O592        O  0.48582021  0.51439635  0.59315201    -0.63600
O593        O  0.51745644  0.56776058  0.66372381    -1.10200
C594        C  0.42569192  0.61397840  0.64858165     1.08000
O595        O  0.48196387  0.55474616  0.55685810    -0.76800
O596        O  0.48752324  0.61143447  0.58483437    -0.64400
Ni597      Ni  0.02482184  0.56735419  0.68819976     1.34900
C598        C  0.49620018  0.62723015  0.61270173     0.86700
O599        O  0.02724514  0.52899594  0.61355410    -0.77300
O600        O  0.05341551  0.56061318  0.64881451    -0.87600
C601        C  0.48608742  0.52714553  0.56043908     0.86300
O602        O  0.53094687  0.51779216  0.70807796    -0.65800
O603        O  0.43134899  0.60741715  0.61358731    -0.85100
C604        C  0.50406871  0.51145075  0.70778540     0.87100
C605        C  0.05127810  0.54163186  0.62210444     1.08700
H606        H  0.45137156  0.55024664  0.64108956     0.40500
O607        O  0.46773118  0.56217192  0.63294599    -1.07700
O608        O  0.49246590  0.61978043  0.64711825    -0.64400
Ni609      Ni  0.47979667  0.58564136  0.67372863     1.26300
O610        O  0.48833005  0.51678215  0.67762745    -0.64600
O611        O  0.44125021  0.60469570  0.67724308    -0.76900
C612        C  0.51012579  0.59526298  0.74309272     0.86500
O613        O  0.49379928  0.60538596  0.71679796    -0.64100
Ni614      Ni  0.45760497  0.58112709  0.58658699     1.27400
Ni615      Ni  0.50233552  0.53882708  0.63128878     1.26100
H616        H  0.00264098  0.58799193  0.63549077     0.41100
O617        O  0.17892525  0.75725258  0.79188015    -0.78900
O618        O  0.24654277  0.77713845  0.93339632    -0.63600
O619        O  0.18547304  0.75878939  0.86555689    -1.10200
C620        C  0.15792803  0.85660830  0.87898677     1.08000
O621        O  0.21059375  0.79272994  0.97207543    -0.76800
O622        O  0.15510785  0.79067150  0.94397548    -0.64400
Ni623      Ni  0.18922365  0.72888739  0.82846983     1.34900
C624        C  0.13685856  0.78600188  0.91722888     0.86700
O625        O  0.23208381  0.72722633  0.89971241    -0.77300
O626        O  0.19989124  0.70036533  0.86654192    -0.87600
C627        C  0.23510156  0.77953932  0.96682258     0.86300
O628        O  0.22935944  0.73518601  0.81636507    -0.65800
O629        O  0.16196510  0.84878121  0.91424057    -0.85100
C630        C  0.24282850  0.75932798  0.81792308     0.87100
C631        C  0.22019855  0.70279980  0.89140351     1.08700
H632        H  0.21816541  0.81981980  0.88631519     0.40500
O633        O  0.20315660  0.80638045  0.89465298    -1.07700
O634        O  0.14092725  0.79596781  0.88415657    -0.64400
Ni635      Ni  0.17594460  0.79989207  0.85492211     1.26300
O636        O  0.24181326  0.77535032  0.84872525    -0.64600
O637        O  0.16649515  0.84091316  0.85057020    -0.76900
C638        C  0.15381868  0.76829961  0.79537767     0.86500
O639        O  0.14998186  0.79127322  0.81452304    -0.64100
Ni640      Ni  0.18640786  0.81954689  0.94155303     1.27400
Ni641      Ni  0.21795090  0.76711913  0.89614394     1.26100
H642        H  0.17102919  0.75092802  0.88286123     0.41100
O643        O  0.25384209  0.68532943  0.73189845    -0.78900
O644        O  0.27103895  0.75677582  0.59370258    -0.63600
O645        O  0.25478432  0.69375788  0.65947156    -1.10200
C646        C  0.35241258  0.66721240  0.64420863     1.08000
O647        O  0.28813450  0.72250463  0.55354515    -0.76800
O648        O  0.28605382  0.66650070  0.57985729    -0.64400
Ni649      Ni  0.22470908  0.69560425  0.69647940     1.34900
C650        C  0.28195711  0.64726630  0.60553806     0.86700
O651        O  0.22175811  0.73971924  0.62665216    -0.77300
O652        O  0.19573938  0.70619546  0.65871666    -0.87600
C653        C  0.27410327  0.74644083  0.55973483     0.86300
O654        O  0.22969166  0.73555378  0.71042465    -0.65800
O655        O  0.34427256  0.67206411  0.60922897    -0.85100
C656        C  0.25315307  0.75020130  0.70904274     0.87100
C657        C  0.19776711  0.72659626  0.63384002     1.08700
H658        H  0.31491619  0.72833363  0.63954127     0.40500
O659        O  0.30180720  0.71317234  0.63078699    -1.07700
O660        O  0.29233935  0.65031998  0.63868062    -0.64400
Ni661      Ni  0.29623868  0.68480249  0.66948451     1.26300
O662        O  0.26928002  0.75025286  0.67825752    -0.64600
O663        O  0.33734648  0.67594539  0.67303111    -0.76900
C664        C  0.26489353  0.66042135  0.72657261     0.86500
O665        O  0.28888366  0.65792429  0.70942197    -0.64100
Ni666      Ni  0.31502473  0.69753928  0.58318861     1.27400
Ni667      Ni  0.26207291  0.72697981  0.62996196     1.26100
H668        H  0.24713684  0.67956765  0.64161497     0.41100
O669        O  0.49684214  0.68642910  0.78312775    -0.78900
O670        O  0.47655631  0.75201683  0.92446501    -0.63600
O671        O  0.49549724  0.69166257  0.85601396    -1.10200
C672        C  0.39804627  0.66287593  0.86833395     1.08000
O673        O  0.45965343  0.71630344  0.96266527    -0.76800
O674        O  0.46289539  0.66085057  0.93423486    -0.64400
Ni675      Ni  0.05099885  0.70180254  0.82499355     1.34900
C676        C  0.46806617  0.64252209  0.90771388     0.86700
O677        O  0.04126450  0.74529494  0.89600708    -0.77300
O678        O  0.07434543  0.71792629  0.86618647    -0.87600
C679        C  0.47272675  0.74088135  0.95777364     0.86300
O680        O  0.51969178  0.73629289  0.80827055    -0.65800
O681        O  0.40558641  0.66683196  0.90360933    -0.85100
C682        C  0.49579716  0.75012858  0.81033026     0.87100
C683        C  0.06755457  0.73765045  0.89031331     1.08700
H684        H  0.43440249  0.72398528  0.87669362     0.40500
O685        O  0.44769522  0.70884724  0.88501622    -1.07700
O686        O  0.45922130  0.64670198  0.87392293    -0.64400
Ni687      Ni  0.45430972  0.68204824  0.84488559     1.26300
O688        O  0.47939503  0.74833499  0.84066226    -0.64600
O689        O  0.41346116  0.67228338  0.84020279    -0.76900
C690        C  0.48688337  0.66097317  0.78728713     0.86500
O691        O  0.46250209  0.65721331  0.80300092    -0.64100
Ni692      Ni  0.43386295  0.69179717  0.93137908     1.27400
Ni693      Ni  0.48701800  0.72359345  0.88731153     1.26100
H694        H  0.02877515  0.67962524  0.87694970     0.41100
O695        O  0.06823802  0.72863847  0.73236400    -0.78900
O696        O  0.00897853  0.76992236  0.58506038    -0.63600
O697        O  0.06339105  0.73855095  0.65440130    -1.10200
C698        C  0.10567085  0.83187243  0.64522592     1.08000
O699        O  0.04922195  0.77603725  0.54896776    -0.76800
O700        O  0.10516079  0.76962696  0.57904815    -0.64400
Ni701      Ni  0.05355727  0.70794786  0.68867274     1.34900
C702        C  0.12103670  0.76190919  0.60728868     0.86700
O703        O  0.01121426  0.71791028  0.61797746    -0.77300
O704        O  0.03887197  0.68451166  0.64691669    -0.87600
C705        C  0.02200768  0.76941079  0.55248572     0.86300
O706        O  0.01515382  0.72215139  0.69937148    -0.65800
O707        O  0.10112478  0.82603557  0.60957053    -0.85100
C708        C  0.50687359  0.76240283  0.70333025     0.87100
C709        C  0.01838294  0.69146668  0.62400177     1.10300
H710        H  0.04312810  0.80462892  0.63385966     0.40500
O711        O  0.05572072  0.78877664  0.62578335    -1.07700
O712        O  0.11394596  0.76708749  0.64135789    -0.64400
Ni713      Ni  0.07879342  0.77686392  0.66689248     1.26300
O714        O  0.01208666  0.76546428  0.67042592    -0.64600
O715        O  0.09531783  0.81605142  0.67284774    -0.76900
C716        C  0.09039448  0.74526411  0.73499126     0.86500
O717        O  0.09883569  0.76326380  0.70974755    -0.64100
Ni718      Ni  0.07527920  0.80001775  0.58041854     1.27400
Ni719      Ni  0.03374508  0.75351105  0.62281758     1.26100
H720        H  0.07700054  0.72930101  0.63699963     0.41100
O721        O  0.21269659  0.80135852  0.47060223    -0.78900
O722        O  0.20931650  0.85878237  0.30921762    -0.63600
O723        O  0.19898086  0.80700000  0.39260565    -1.10200
C724        C  0.30362073  0.79633507  0.38644190     1.08000
O725        O  0.24398580  0.83035169  0.28826259    -0.76800
O726        O  0.27094614  0.78270524  0.31420831    -0.64400
Ni727      Ni  0.18501494  0.82390698  0.43907262     1.34900
C728        C  0.24756627  0.76812628  0.31644853     0.86700
O729        O  0.16193119  0.84074375  0.34778017    -0.77300
O730        O  0.15504936  0.84710386  0.41124851    -0.87600
C731        C  0.23285874  0.85541925  0.29126728     0.86300
O732        O  0.21282493  0.85583665  0.43996930    -0.65800
O733        O  0.30444491  0.81609500  0.36058568    -0.85100
C734        C  0.21661814  0.87390714  0.41285463     0.87100
C735        C  0.14670798  0.85009478  0.37605447     1.08700
H736        H  0.25255467  0.84198781  0.37751760     0.40500
O737        O  0.24508565  0.82669703  0.36132265    -1.07700
O738        O  0.23172582  0.76909825  0.34745364    -0.64400
Ni739      Ni  0.23918581  0.79475864  0.39367970     1.26300
O740        O  0.20617312  0.86943411  0.37997687    -0.64600
O741        O  0.28001983  0.78352630  0.39652011    -0.76900
C742        C  0.22787780  0.77793832  0.46597157     0.86500
O743        O  0.23165968  0.76652798  0.43269571    -0.64100
Ni744      Ni  0.27436588  0.82352688  0.32326386     1.27400
Ni745      Ni  0.20325607  0.83366539  0.35153758     1.26100
H746        H  0.18645266  0.79096227  0.38509258     0.41100
O747        O  0.29005368  0.71881643  0.05482356    -0.78900
O748        O  0.34947203  0.71928232  0.21437493    -0.63600
O749        O  0.29710755  0.70562277  0.13252828    -1.10200
C750        C  0.28364701  0.80981857  0.13286986     1.08000
O751        O  0.32148021  0.75489930  0.23380536    -0.76800
O752        O  0.27224934  0.77934104  0.20857996    -0.64400
Ni753      Ni  0.31353030  0.69169454  0.08578608     1.34900
C754        C  0.25811325  0.75557744  0.20803815     0.86700
O755        O  0.33327527  0.67022035  0.17677840    -0.77300
O756        O  0.33760957  0.66238626  0.11312856    -0.87600
C757        C  0.34657407  0.74392771  0.22985194     0.86300
O758        O  0.34536433  0.71965660  0.08327313    -0.65800
O759        O  0.30370833  0.81210216  0.15817033    -0.85100
C760        C  0.36385660  0.72421925  0.10973515     0.87100
C761        C  0.34193163  0.65462957  0.14826994     1.08700
H762        H  0.33042353  0.76019667  0.14389712     0.40500
O763        O  0.31573536  0.75293339  0.16122614    -1.07700
O764        O  0.25894591  0.73870704  0.17795839    -0.64400
Ni765      Ni  0.28336418  0.74534197  0.13041388     1.26300
O766        O  0.35963804  0.71531140  0.14344555    -0.64600
O767        O  0.27073665  0.78568779  0.12568221    -0.76900
C768        C  0.26597387  0.73279946  0.05981754     0.86500
O769        O  0.25459852  0.73586349  0.09317172    -0.64100
Ni770      Ni  0.31276048  0.78367771  0.19726211     1.27400
Ni771      Ni  0.32430021  0.71147051  0.17252686     1.26100
H772        H  0.28164579  0.69268541  0.14088851     0.41100
O773        O  0.28819619  0.54990951  0.46111481    -0.78900
O774        O  0.34978312  0.54767476  0.30316871    -0.63600
O775        O  0.29682538  0.56207111  0.38386789    -1.10200
C776        C  0.26700858  0.94272449  0.38960634     1.08000
O777        O  0.32047796  0.51344846  0.28298590    -0.76800
O778        O  0.27064736  0.48957004  0.30666618    -0.64400
Ni779      Ni  0.31317009  0.57589678  0.43072723     1.34900
C780        C  0.25679340  0.51342942  0.30794777     0.86700
O781        O  0.33435471  0.59702884  0.34047329    -0.77300
O782        O  0.33844933  0.60455680  0.40409603    -0.87600
C783        C  0.34594775  0.52339321  0.28717731     0.86300
O784        O  0.34434727  0.54706268  0.43404501    -0.65800
O785        O  0.28711347  0.93586428  0.36601725    -0.85100
C786        C  0.36303697  0.54209167  0.40785594     0.87100
C787        C  0.34318543  0.61241362  0.36912700     1.08700
H788        H  0.32894757  0.50656367  0.37266669     0.40500
O789        O  0.31454762  0.51432925  0.35528977    -1.07700
O790        O  0.25805921  0.53002646  0.33817703    -0.64400
Ni791      Ni  0.28207027  0.52249026  0.38566294     1.26300
O792        O  0.35922537  0.55102736  0.37408432    -0.64600
O793        O  0.25961497  0.96910989  0.39570831    -0.76900
C794        C  0.26355684  0.53706543  0.45555391     0.86500
O795        O  0.25303786  0.53297004  0.42195518    -0.64100
Ni796      Ni  0.30093262  0.95982827  0.32434487     1.27400
Ni797      Ni  0.32430188  0.55582483  0.34443320     1.26100
H798        H  0.28176140  0.57532754  0.37522135     0.41100
O799        O  0.23408098  0.95837653  0.05009700    -0.78900
O800        O  0.24581045  0.90799748  0.21100900    -0.63600
O801        O  0.22061330  0.95152365  0.12708817    -1.10200
C802        C  0.31810706  0.98667701  0.12523658     1.08000
O803        O  0.27815453  0.94025360  0.23540991    -0.76800
O804        O  0.28637590  0.99288150  0.20155880    -0.64400
Ni805      Ni  0.20950246  0.93245280  0.08119670     1.34900
C806        C  0.24641659  0.50009408  0.20094789     0.86700
O807        O  0.19316561  0.91098273  0.17313551    -0.77300
O808        O  0.18293361  0.90669077  0.10972446    -0.87600
C809        C  0.26202967  0.91766068  0.23760051     0.86300
O810        O  0.23946985  0.90219997  0.07962284    -0.65800
O811        O  0.32466717  0.96763023  0.15049949    -0.85100
C812        C  0.24772816  0.88639296  0.10765933     0.87100
C813        C  0.17712589  0.90139602  0.14522123     1.08700
H814        H  0.28027334  0.93040688  0.13981473     0.40500
O815        O  0.27050504  0.94394790  0.15681683    -1.07700
O816        O  0.23018790  0.49818257  0.17045364    -0.64400
Ni817      Ni  0.25597773  0.97337688  0.12463765     1.26300
O818        O  0.24295704  0.89335144  0.14192364    -0.64600
O819        O  0.29195971  0.99507038  0.11977730    -0.76900
C820        C  0.24089549  0.98553061  0.05388525     0.86500
O821        O  0.24020951  0.99831630  0.08657034    -0.64100
Ni822      Ni  0.30024592  0.95408342  0.19220162     1.27400
Ni823      Ni  0.23230558  0.92805804  0.16807323     1.26100
H824        H  0.20478897  0.96411073  0.13524199     0.41100
O825        O  0.04036486  0.79732288  0.05148373    -0.78900
O826        O  0.03657708  0.85349583  0.21313441    -0.63600
O827        O  0.05284859  0.80380151  0.12930090    -1.10200
C828        C  0.43455127  0.77351305  0.12747337     1.08000
O829        O  0.00357081  0.82201141  0.23216208    -0.76800
O830        O  0.98028083  0.77314883  0.20305068    -0.64400
Ni831      Ni  0.06595056  0.82177339  0.08315574     1.34900
C832        C  0.00492602  0.76075752  0.20268730     0.86700
O833        O  0.08683807  0.84084857  0.17454954    -0.77300
O834        O  0.09405874  0.84674456  0.11099969    -0.87600
C835        C  0.01322238  0.84781463  0.23083513     0.86300
O836        O  0.03638725  0.85220384  0.08179734    -0.65800
O837        O  0.42808142  0.79381468  0.15094558    -0.85100
C838        C  0.03114991  0.86999341  0.10890388     0.87100
C839        C  0.10199352  0.85059012  0.14611174     1.08700
H840        H  0.47167730  0.83197393  0.13764263     0.40500
O841        O  0.00479269  0.81963583  0.15892539    -1.07700
O842        O  0.02182847  0.76326875  0.17294639    -0.64400
Ni843      Ni  0.01369583  0.78842863  0.12668354     1.26300
O844        O  0.04021813  0.86546487  0.14247705    -0.64600
O845        O  0.46087688  0.76648679  0.11995696    -0.76900
C846        C  0.02809057  0.77228023  0.05585325     0.86500
O847        O  0.02458911  0.76067603  0.08892681    -0.64100
Ni848      Ni  0.45264142  0.80874129  0.19121551     1.27400
Ni849      Ni  0.04583469  0.82983418  0.17028954     1.26100
H850        H  0.06644248  0.78875391  0.13707314     0.41100
O851        O  0.45173277  0.74415264  0.46401189    -0.78900
O852        O  0.40213467  0.75504438  0.30252157    -0.63600
O853        O  0.44529904  0.73058093  0.38719718    -1.10200
C854        C  0.48280444  0.82794520  0.38499432     1.08000
O855        O  0.43478451  0.78645969  0.27724519    -0.76800
O856        O  0.48765933  0.79444484  0.31107705    -0.64400
Ni857      Ni  0.42582189  0.71986478  0.43298931     1.34900
C858        C  0.49468027  0.76769040  0.31220228     0.86700
O859        O  0.40458559  0.70288741  0.34130735    -0.77300
O860        O  0.39968658  0.69355042  0.40478015    -0.87600
C861        C  0.41149047  0.77135402  0.27583946     0.86300
O862        O  0.39645721  0.75050463  0.43402209    -0.65800
O863        O  0.46340059  0.83411649  0.36007874    -0.85100
C864        C  0.38081232  0.75891079  0.40598499     0.87100
C865        C  0.39456326  0.68733507  0.36940951     1.08700
H866        H  0.42498081  0.79041122  0.37258395     0.40500
O867        O  0.43846822  0.78016294  0.35609779    -1.07700
O868        O  0.49008315  0.75234030  0.34297762    -0.64400
Ni869      Ni  0.46753243  0.76585577  0.38911413     1.26300
O870        O  0.38741356  0.75346617  0.37171931    -0.64600
O871        O  0.48983314  0.80172556  0.39298541    -0.76900
C872        C  0.47887107  0.75086075  0.46055948     0.86500
O873        O  0.49196547  0.75037697  0.42805454    -0.64100
Ni874      Ni  0.44911373  0.80906251  0.31968155     1.27400
Ni875      Ni  0.42206932  0.74193026  0.34574864     1.26100
H876        H  0.45780061  0.71455975  0.37941607     0.41100
O877        O  0.01791857  0.95852256  0.46704220    -0.78900
O878        O  0.00330979  0.90551176  0.30900282    -0.63600
O879        O  0.02955446  0.95087029  0.39030916    -1.10200
C880        C  0.44643609  0.97570147  0.38041557     1.08000
O881        O  0.96764354  0.93397224  0.28466633    -0.76800
O882        O  0.96512721  0.98935453  0.31204219    -0.64400
Ni883      Ni  0.04170419  0.93246353  0.43623424     1.34900
C884        C  0.00065577  0.50038976  0.30448871     0.86700
O885        O  0.05612775  0.90974307  0.34478575    -0.77300
O886        O  0.06744276  0.90650588  0.40794273    -0.87600
C887        C  0.98473738  0.91209454  0.28363712     0.86300
O888        O  0.01237521  0.90179285  0.43984896    -0.65800
O889        O  0.44465821  0.95501263  0.35592219    -0.85100
C890        C  0.00384959  0.88565607  0.41230740     0.87100
C891        C  0.07243284  0.90052386  0.37261596     1.08700
H892        H  0.49659080  0.92991075  0.37172321     0.40500
O893        O  0.97900559  0.94340572  0.36226569    -1.07700
O894        O  0.01733705  0.50064902  0.33472462    -0.64400
Ni895      Ni  0.99462637  0.97334442  0.39328347     1.26300
O896        O  0.00696965  0.89285580  0.37784409    -0.64600
O897        O  0.47021041  0.98946905  0.38690027    -0.76900
C898        C  0.01279204  0.98591709  0.46312720     0.86500
O899        O  0.01197909  0.99835338  0.43018437    -0.64100
Ni900      Ni  0.47342578  0.94556918  0.31738161     1.27400
Ni901      Ni  0.01713643  0.92697624  0.35038292     1.26100
H902        H  0.04536412  0.96314658  0.38128999     0.41100
O903        O  0.45217907  0.52632128  0.05424142    -0.78900
O904        O  0.39826005  0.50926287  0.21176451    -0.63600
O905        O  0.44372230  0.53728377  0.13113915    -1.10200
C906        C  0.46817206  0.95249079  0.12051292     1.08000
O907        O  0.43157703  0.47863174  0.23712500    -0.76800
O908        O  0.48485771  0.47145791  0.20523890    -0.64400
Ni909      Ni  0.42604069  0.55017891  0.08506923     1.34900
C910        C  0.49222572  0.49816149  0.20505916     0.86700
O911        O  0.40127600  0.56295644  0.17619724    -0.77300
O912        O  0.39989744  0.57593009  0.11343644    -0.87600
C913        C  0.40810774  0.49338112  0.23862280     0.86300
O914        O  0.39539015  0.52105431  0.08011256    -0.65800
O915        O  0.44765327  0.94992810  0.14501515    -0.85100
C916        C  0.37932957  0.51111411  0.10688015     0.87100
C917        C  0.39293376  0.58009408  0.14870696     1.08700
H918        H  0.42339458  0.47670684  0.14117877     0.40500
O919        O  0.43638997  0.48661069  0.15875501    -1.07700
O920        O  0.48775361  0.51430716  0.17509774    -0.64400
Ni921      Ni  0.46609499  0.50219542  0.12791103     1.26300
O922        O  0.38588641  0.51352765  0.14172322    -0.64600
O923        O  0.48018874  0.97692100  0.11260040    -0.76900
C924        C  0.47933946  0.52024822  0.05867167     0.86500
O925        O  0.49146522  0.51940291  0.09168769    -0.64100
Ni926      Ni  0.43670828  0.97815258  0.18322738     1.27400
Ni927      Ni  0.41933776  0.52424207  0.17043281     1.26100
H928        H  0.45593302  0.55290943  0.14082018     0.41100
C929        C  0.00423050  0.51673055  0.23178830    -0.11300
C930        C  0.00746213  0.51426098  0.26697010    -0.12800
C931        C  0.98149582  0.83373747  0.40697321    -0.11300
C932        C  0.99081715  0.85725340  0.41750189    -0.12800
C933        C  0.01321411  0.89567151  0.10406815    -0.11300
C934        C  0.99819939  0.91666770  0.11201038    -0.12800
C935        C  0.98425758  0.89282309  0.25256768    -0.11300
C936        C  0.99442295  0.87134017  0.23893740    -0.12800
C937        C  0.01274779  0.74673010  0.23967947    -0.11300
C938        C  0.00958984  0.74391982  0.27479272    -0.12800
C939        C  0.15103978  0.88317725  0.15276884    -0.11300
C940        C  0.12886369  0.86786129  0.15279630    -0.12800
C941        C  0.35175179  0.49692016  0.10005953    -0.11300
C942        C  0.32843571  0.48626744  0.10882746    -0.12800
C943        C  0.37605383  0.66135885  0.36231821    -0.11300
C944        C  0.36055414  0.63929666  0.36271265    -0.12800
C945        C  0.40997213  0.50911582  0.40678599    -0.11300
C946        C  0.38892167  0.52444842  0.41381272    -0.12800
C947        C  0.37001612  0.50440318  0.28509988    -0.11300
C948        C  0.39133598  0.49368201  0.27200361    -0.12800
C949        C  0.24183951  0.52047365  0.27137568    -0.11300
C950        C  0.23870405  0.51611666  0.23654695    -0.12800
C951        C  0.37421224  0.60566192  0.15618946    -0.11300
C952        C  0.35879303  0.62766782  0.15523197    -0.12800
C953        C  0.38987189  0.74149500  0.10401217    -0.11300
C954        C  0.41105644  0.75652150  0.11093775    -0.12800
C955        C  0.37147295  0.76201324  0.23135591    -0.11300
C956        C  0.39379668  0.77166894  0.24317331    -0.12800
C957        C  0.27360660  0.83592605  0.11327518    -0.11300
C958        C  0.26282232  0.85891642  0.10312776    -0.12800
C959        C  0.11977191  0.86649262  0.36823675    -0.11300
C960        C  0.09790422  0.88184400  0.36573587    -0.12800
C961        C  0.33076712  0.78625938  0.40308228    -0.11300
C962        C  0.35393173  0.77488871  0.41097910    -0.12800
C963        C  0.23494624  0.89933329  0.41659458    -0.11300
C964        C  0.25043765  0.91972972  0.40782850    -0.12800
C965        C  0.26084852  0.90133983  0.27134807    -0.11300
C966        C  0.25040458  0.88026269  0.28558263    -0.12800
C967        C  0.24010128  0.75270518  0.28014481    -0.11300
C968        C  0.24339904  0.74887468  0.24512752    -0.12800
C969        C  0.00786414  0.75645218  0.51954049    -0.11300
C970        C  0.49304856  0.76317599  0.49387635    -0.12800
C971        C  0.48673003  0.75377855  0.99100429    -0.11300
C972        C  0.01460786  0.75917833  0.02240191    -0.12800
C973        C  0.48829201  0.76582387  0.77448028    -0.11300
C974        C  0.49174533  0.76971235  0.73964209    -0.12800
C975        C  0.25806937  0.75914685  0.52738909    -0.11300
C976        C  0.24389322  0.76671149  0.49928502    -0.12800
C977        C  0.14865924  0.74700603  0.60340781    -0.11300
C978        C  0.17159751  0.73650070  0.61425674    -0.12800
C979        C  0.25438310  0.74895398  0.02711790    -0.11300
C980        C  0.24712397  0.76338761  0.99925360    -0.12800
C981        C  0.10779253  0.74446849  0.76773760    -0.11300
C982        C  0.12902498  0.75253097  0.78399208    -0.12800
C983        C  0.09064487  0.75308669  0.91051747    -0.11300
C984        C  0.11130420  0.76768790  0.92118202    -0.12800
C985        C  0.25719038  0.76746660  0.78117604    -0.11300
C986        C  0.26041279  0.76468801  0.74602171    -0.12800
C987        C  0.37887986  0.64949930  0.65114809    -0.11300
C988        C  0.40033927  0.63342201  0.65402473    -0.12800
C989        C  0.00576975  0.50933468  0.48502842    -0.11300
C990        C  0.49514141  0.51168753  0.52667773    -0.12800
C991        C  0.51010544  0.65551657  0.60730994    -0.11300
C992        C  0.52034621  0.67956611  0.61425941    -0.12800
C993        C  0.50573138  0.63670868  0.78610272    -0.11300
C994        C  0.51371165  0.61366803  0.77468531    -0.12800
C995        C  0.12698421  0.90629085  0.86900969    -0.11300
C996        C  0.14169669  0.88387038  0.87144521    -0.12800
C997        C  0.00596259  0.00103117  0.99668116    -0.11300
C998        C  0.49488208  0.51018859  0.02560332    -0.12800
C999        C  0.48833298  0.99969492  0.73170220    -0.11300
C1000       C  0.49164954  0.99672337  0.76691524    -0.12800
C1001       C  0.48560974  0.61654405  0.91351957    -0.11300
C1002       C  0.50057346  0.59521242  0.90663148    -0.12800
C1003       C  0.13953178  0.87957082  0.65358985    -0.11300
C1004       C  0.12401954  0.85762156  0.65330852    -0.12800
C1005       C  0.24774492  0.99477845  0.52447618    -0.11300
C1006       C  0.24975875  0.52361156  0.48851006    -0.12800
C1007       C  0.10977866  0.99344758  0.60748737    -0.11300
C1008       C  0.07752928  0.53218441  0.60286197    -0.12800
C1009       C  0.11331989  0.02178302  0.75272841    -0.11300
C1010       C  0.13558258  0.01333252  0.73933502    -0.12800
C1011       C  0.24835964  0.60091501  0.60755773    -0.11300
C1012       C  0.26361858  0.62187172  0.59998894    -0.12800
C1013       C  0.34988438  0.62994578  0.85881908    -0.11300
C1014       C  0.37159272  0.64563244  0.86056256    -0.12800
C1015       C  0.23862783  0.50317174  0.02036582    -0.11300
C1016       C  0.25093993  0.51173864  0.99164451    -0.12800
C1017       C  0.15994704  0.50759094  0.90431136    -0.11300
C1018       C  0.15067737  0.01637186  0.91824970    -0.12800
C1019       C  0.24756246  0.63523118  0.73042745    -0.11300
C1020       C  0.23783413  0.61361924  0.74408984    -0.12800
C1021       C  0.24245848  0.65306557  0.91656175    -0.11300
C1022       C  0.23155601  0.67651475  0.90901101    -0.12800
C1023       C  0.26378927  0.99548968  0.77718632    -0.11300
C1024       C  0.26085789  0.99255008  0.74208030    -0.12800
O1025       O  0.72205745  0.07382929  0.77937194    -0.78900
O1026       O  0.76270008  0.01331650  0.92539523    -0.63600
O1027       O  0.73073844  0.06885891  0.85773298    -1.10200
C1028       C  0.82457315  0.11108095  0.86634834     1.08000
O1029       O  0.77140665  0.05251103  0.96238347    -0.76800
O1030       O  0.76620082  0.10908981  0.93582269    -0.64400
Ni1031     Ni  0.70058594  0.05934625  0.82258708     1.34900
C1032       C  0.75642185  0.12542555  0.90922978     0.86700
O1033       O  0.70987376  0.01684510  0.89363852    -0.77300
O1034       O  0.67682387  0.04471581  0.86392109    -0.87600
C1035       C  0.76357538  0.02574826  0.95836514     0.86300
O1036       O  0.71421631  0.02076405  0.81192489    -0.65800
O1037       O  0.82058746  0.10421538  0.90165410    -0.85100
C1038       C  0.74096800  0.01382426  0.81050241     0.87100
C1039       C  0.68347183  0.02429010  0.88713745     1.08700
H1040       H  0.79681322  0.04820597  0.87502837     0.40500
O1041       O  0.78144227  0.06068184  0.88487501    -1.07700
O1042       O  0.75866545  0.11900886  0.87428426    -0.64400
Ni1043     Ni  0.76854544  0.08523865  0.84550193     1.26300
O1044       O  0.75755815  0.01740005  0.84038578    -0.64600
O1045       O  0.80739665  0.10264247  0.83901127    -0.76900
C1046       C  0.73752081  0.09683628  0.77748410     0.86500
O1047       O  0.75373474  0.10643622  0.80413821    -0.64100
Ni1048     Ni  0.79509335  0.07828092  0.93065999     1.27400
Ni1049     Ni  0.74599109  0.03881089  0.88841694     1.26100
H1050       H  0.72127042  0.08202630  0.87544458     0.41100
O1051       O  0.68521567  0.50441028  0.73466975    -0.78900
O1052       O  0.74681108  0.48297750  0.59067192    -0.63600
O1053       O  0.68835930  0.50316697  0.66131033    -1.10200
C1054       C  0.65683803  0.40629829  0.64711252     1.08000
O1055       O  0.70920233  0.46940185  0.55340414    -0.76800
O1056       O  0.65391571  0.47184992  0.58396924    -0.64400
Ni1057     Ni  0.69669755  0.05972918  0.68959109     1.34900
C1058       C  0.63646884  0.47682453  0.61160140     0.86700
O1059       O  0.73772866  0.05109257  0.61656228    -0.77300
O1060       O  0.71200090  0.08421147  0.64940032    -0.87600
C1061       C  0.73469536  0.48077870  0.55768411     0.86300
O1062       O  0.73497318  0.52600590  0.70642215    -0.65800
O1063       O  0.66081361  0.41425305  0.61203177    -0.85100
C1064       C  0.74690414  0.50111637  0.70536106     0.87100
C1065       C  0.73146717  0.07752076  0.62480896     1.08700
H1066       H  0.71816340  0.44130285  0.63817342     0.40500
O1067       O  0.70333526  0.45525537  0.63078430    -1.07700
O1068       O  0.64194295  0.46839309  0.64517195    -0.64400
Ni1069     Ni  0.67774015  0.46216003  0.67213606     1.26300
O1070       O  0.74428880  0.48474492  0.67511122    -0.64600
O1071       O  0.66640112  0.42131858  0.67575175    -0.76900
C1072       C  0.65946534  0.49474096  0.73240185     0.86500
O1073       O  0.65428968  0.47109494  0.71521226    -0.64100
Ni1074     Ni  0.68515291  0.44296593  0.58448809     1.27400
Ni1075     Ni  0.71947464  0.49398879  0.62892507     1.26100
H1076       H  0.67266058  0.04138430  0.63602166     0.41100
O1077       O  0.56993450  0.53263246  0.78391070    -0.78900
O1078       O  0.50973074  0.49252888  0.93047974    -0.63600
O1079       O  0.56365452  0.00355405  0.85182317    -1.10200
C1080       C  0.60877176  0.43240964  0.87518975     1.08000
O1081       O  0.54949676  0.48779469  0.96767416    -0.76800
O1082       O  0.60652692  0.49376043  0.94082571    -0.64400
Ni1083     Ni  0.56009537  0.03368958  0.81500551     1.34900
C1084       C  0.62250154  0.50252454  0.91320032     0.86700
O1085       O  0.51767843  0.03560490  0.88633324    -0.77300
O1086       O  0.55002121  0.06245712  0.85339595    -0.87600
C1087       C  0.52196905  0.49211462  0.96345237     0.86300
O1088       O  0.51584276  0.53879069  0.81426408    -0.65800
O1089       O  0.60251842  0.43789478  0.91033863    -0.85100
C1090       C  0.50755785  0.51239475  0.81653758     0.87100
C1091       C  0.53018116  0.05992203  0.87900788     1.08700
H1092       H  0.54561116  0.45881090  0.88249366     0.40500
O1093       O  0.55761383  0.47492224  0.89126022    -1.07700
O1094       O  0.61536807  0.49891916  0.87877782    -0.64400
Ni1095     Ni  0.58160005  0.48734860  0.85128517     1.26300
O1096       O  0.51253361  0.49686788  0.84700573    -0.64600
O1097       O  0.59992656  0.44857003  0.84690671    -0.76900
C1098       C  0.59412216  0.51901798  0.78364227     0.86500
O1099       O  0.60271538  0.50171280  0.80965058    -0.64100
Ni1100     Ni  0.57614586  0.46391436  0.93768916     1.27400
Ni1101     Ni  0.53464457  0.50970726  0.89360970     1.26100
H1102       H  0.57809278  0.01130279  0.86917528     0.41100
O1103       O  0.02251831  0.07045443  0.74209124    -0.78900
O1104       O  0.98582014  0.01439639  0.59315202    -0.63600
O1105       O  0.01745639  0.06776064  0.66372379    -1.10200
C1106       C  0.92569191  0.11397839  0.64858176     1.08000
O1107       O  0.98196379  0.05474618  0.55685806    -0.76800
O1108       O  0.98752312  0.11143451  0.58483439    -0.64400
Ni1109     Ni  0.52482187  0.06735418  0.68819974     1.34900
C1110       C  0.99620011  0.12723019  0.61270173     0.86700
O1111       O  0.52724511  0.02899595  0.61355408    -0.77300
O1112       O  0.55341549  0.06061319  0.64881447    -0.87600
C1113       C  0.98608736  0.02714555  0.56043907     0.86300
O1114       O  0.03094685  0.01779220  0.70807797    -0.65800
O1115       O  0.93134892  0.10741707  0.61358744    -0.85100
C1116       C  0.00406870  0.01145072  0.70778539     0.87100
C1117       C  0.55127807  0.04163186  0.62210441     1.08700
H1118       H  0.95137159  0.05024669  0.64108961     0.40500
O1119       O  0.96773114  0.06217193  0.63294604    -1.07700
O1120       O  0.99246584  0.11978050  0.64711826    -0.64400
Ni1121     Ni  0.97979664  0.08564140  0.67372866     1.26300
O1122       O  0.98833004  0.01678213  0.67762744    -0.64600
O1123       O  0.94125021  0.10469572  0.67724320    -0.76900
C1124       C  0.01012571  0.09526297  0.74309275     0.86500
O1125       O  0.99379925  0.10538599  0.71679798    -0.64100
Ni1126     Ni  0.95760490  0.08112707  0.58658703     1.27400
Ni1127     Ni  0.00233548  0.03882711  0.63128878     1.26100
H1128       H  0.50264095  0.08799189  0.63549077     0.41100
O1129       O  0.67892522  0.25725262  0.79188018    -0.78900
O1130       O  0.74654280  0.27713846  0.93339632    -0.63600
O1131       O  0.68547303  0.25878942  0.86555688    -1.10200
C1132       C  0.65792799  0.35660830  0.87898679     1.08000
O1133       O  0.71059382  0.29272998  0.97207544    -0.76800
O1134       O  0.65510791  0.29067147  0.94397550    -0.64400
Ni1135     Ni  0.68922361  0.22888741  0.82846984     1.34900
C1136       C  0.63685865  0.28600181  0.91722887     0.86700
O1137       O  0.73208377  0.22722639  0.89971241    -0.77300
O1138       O  0.69989119  0.20036537  0.86654196    -0.87600
C1139       C  0.73510161  0.27953934  0.96682258     0.86300
O1140       O  0.72935940  0.23518601  0.81636511    -0.65800
O1141       O  0.66196508  0.34878121  0.91424059    -0.85100
C1142       C  0.74282844  0.25932800  0.81792311     0.87100
C1143       C  0.72019852  0.20279985  0.89140351     1.08700
H1144       H  0.71816557  0.31981992  0.88631515     0.40500
O1145       O  0.70315661  0.30638047  0.89465299    -1.07700
O1146       O  0.64092732  0.29596777  0.88415658    -0.64400
Ni1147     Ni  0.67594463  0.29989212  0.85492210     1.26300
O1148       O  0.74181320  0.27535034  0.84872526    -0.64600
O1149       O  0.66649514  0.34091319  0.85057022    -0.76900
C1150       C  0.65381866  0.26829967  0.79537770     0.86500
O1151       O  0.64998186  0.29127331  0.81452304    -0.64100
Ni1152     Ni  0.68640789  0.31954691  0.94155304     1.27400
Ni1153     Ni  0.71795088  0.26711916  0.89614395     1.26100
H1154       H  0.67102922  0.25092805  0.88286116     0.41100
O1155       O  0.75384219  0.18532951  0.73189840    -0.78900
O1156       O  0.77103900  0.25677577  0.59370256    -0.63600
O1157       O  0.75478433  0.19375790  0.65947159    -1.10200
C1158       C  0.85241261  0.16721242  0.64420862     1.08000
O1159       O  0.78813456  0.22250460  0.55354509    -0.76800
O1160       O  0.78605372  0.16650074  0.57985733    -0.64400
Ni1161     Ni  0.72470909  0.19560431  0.69647943     1.34900
C1162       C  0.78195711  0.14726631  0.60553808     0.86700
O1163       O  0.72175809  0.23971923  0.62665210    -0.77300
O1164       O  0.69573932  0.20619554  0.65871674    -0.87600
C1165       C  0.77410331  0.24644078  0.55973480     0.86300
O1166       O  0.72969164  0.23555385  0.71042466    -0.65800
O1167       O  0.84427254  0.17206405  0.60922897    -0.85100
C1168       C  0.75315307  0.25020133  0.70904275     0.87100
C1169       C  0.69776707  0.22659629  0.63384002     1.08700
H1170       H  0.81491629  0.22833376  0.63954129     0.40500
O1171       O  0.80180720  0.21317233  0.63078697    -1.07700
O1172       O  0.79233943  0.15032000  0.63868060    -0.64400
Ni1173     Ni  0.79623872  0.18480251  0.66948451     1.26300
O1174       O  0.76928004  0.25025284  0.67825755    -0.64600
O1175       O  0.83734653  0.17594542  0.67303111    -0.76900
C1176       C  0.76489359  0.16042141  0.72657260     0.86500
O1177       O  0.78888373  0.15792431  0.70942199    -0.64100
Ni1178     Ni  0.81502473  0.19753924  0.58318860     1.27400
Ni1179     Ni  0.76207292  0.22697980  0.62996196     1.26100
H1180       H  0.74713682  0.17956763  0.64161500     0.41100
O1181       O  0.99684212  0.18642909  0.78312778    -0.78900
O1182       O  0.97655631  0.25201685  0.92446506    -0.63600
O1183       O  0.99549723  0.19166261  0.85601397    -1.10200
C1184       C  0.89804628  0.16287592  0.86833393     1.08000
O1185       O  0.95965341  0.21630343  0.96266526    -0.76800
O1186       O  0.96289532  0.16085053  0.93423486    -0.64400
Ni1187     Ni  0.55099885  0.20180259  0.82499356     1.34900
C1188       C  0.96806612  0.14252206  0.90771389     0.86700
O1189       O  0.54126443  0.24529495  0.89600713    -0.77300
O1190       O  0.57434541  0.21792642  0.86618643    -0.87600
C1191       C  0.97272674  0.24088133  0.95777367     0.86300
O1192       O  0.01969179  0.23629287  0.80827047    -0.65800
O1193       O  0.90558638  0.16683200  0.90360931    -0.85100
C1194       C  0.99579717  0.25012856  0.81033020     0.87100
C1195       C  0.56755453  0.23765054  0.89031331     1.08700
H1196       H  0.93440236  0.22398529  0.87669356     0.40500
O1197       O  0.94769520  0.20884723  0.88501622    -1.07700
O1198       O  0.95922126  0.14670194  0.87392293    -0.64400
Ni1199     Ni  0.95430972  0.18204822  0.84488558     1.26300
O1200       O  0.97939505  0.24833501  0.84066223    -0.64600
O1201       O  0.91346119  0.17228333  0.84020276    -0.76900
C1202       C  0.98688339  0.16097315  0.78728714     0.86500
O1203       O  0.96250213  0.15721324  0.80300096    -0.64100
Ni1204     Ni  0.93386292  0.19179717  0.93137907     1.27400
Ni1205     Ni  0.98701799  0.22359350  0.88731153     1.26100
H1206       H  0.52877518  0.17962522  0.87694960     0.41100
O1207       O  0.56823806  0.22863847  0.73236396    -0.78900
O1208       O  0.50897849  0.26992238  0.58506037    -0.63600
O1209       O  0.56339101  0.23855097  0.65440131    -1.10200
C1210       C  0.60567086  0.33187242  0.64522587     1.08000
O1211       O  0.54922190  0.27603733  0.54896776    -0.76800
O1212       O  0.60516080  0.26962709  0.57904806    -0.64400
Ni1213     Ni  0.55355724  0.20794787  0.68867273     1.34900
C1214       C  0.62103666  0.26190922  0.60728860     0.86700
O1215       O  0.51121420  0.21791031  0.61797748    -0.77300
O1216       O  0.53887190  0.18451168  0.64691671    -0.87600
C1217       C  0.52200766  0.26941080  0.55248572     0.86300
O1218       O  0.51515379  0.22215141  0.69937145    -0.65800
O1219       O  0.60112475  0.32603560  0.60957049    -0.85100
C1220       C  0.00687354  0.26240281  0.70333023     0.87100
C1221       C  0.51838287  0.19146671  0.62400178     1.10300
H1222       H  0.54312798  0.30462897  0.63385969     0.40500
O1223       O  0.55572068  0.28877664  0.62578333    -1.07700
O1224       O  0.61394588  0.26708743  0.64135783    -0.64400
Ni1225     Ni  0.57879338  0.27686395  0.66689247     1.26300
O1226       O  0.51208662  0.26546431  0.67042592    -0.64600
O1227       O  0.59531779  0.31605144  0.67284769    -0.76900
C1228       C  0.59039453  0.24526410  0.73499120     0.86500
O1229       O  0.59883567  0.26326388  0.70974757    -0.64100
Ni1230     Ni  0.57527915  0.30001782  0.58041853     1.27400
Ni1231     Ni  0.53374503  0.25351106  0.62281758     1.26100
H1232       H  0.57700050  0.22930104  0.63699969     0.41100
O1233       O  0.71269671  0.30135864  0.47060221    -0.78900
O1234       O  0.70931652  0.35878241  0.30921765    -0.63600
O1235       O  0.69898085  0.30700001  0.39260565    -1.10200
C1236       C  0.80362068  0.29633503  0.38644184     1.08000
O1237       O  0.74398577  0.33035172  0.28826256    -0.76800
O1238       O  0.77094610  0.28270532  0.31420831    -0.64400
Ni1239     Ni  0.68501500  0.32390702  0.43907263     1.34900
C1240       C  0.74756624  0.26812634  0.31644852     0.86700
O1241       O  0.66193124  0.34074385  0.34778015    -0.77300
O1242       O  0.65504939  0.34710386  0.41124852    -0.87600
C1243       C  0.73285872  0.35541928  0.29126725     0.86300
O1244       O  0.71282498  0.35583669  0.43996931    -0.65800
O1245       O  0.80444486  0.31609500  0.36058566    -0.85100
C1246       C  0.71661816  0.37390716  0.41285463     0.87100
C1247       C  0.64670801  0.35009480  0.37605447     1.08700
H1248       H  0.75255467  0.34198774  0.37751765     0.40500
O1249       O  0.74508564  0.32669703  0.36132267    -1.07700
O1250       O  0.73172577  0.26909828  0.34745361    -0.64400
Ni1251     Ni  0.73918578  0.29475863  0.39367970     1.26300
O1252       O  0.70617312  0.36943413  0.37997689    -0.64600
O1253       O  0.78001978  0.28352625  0.39652005    -0.76900
C1254       C  0.72787780  0.27793837  0.46597159     0.86500
O1255       O  0.73165960  0.26652797  0.43269575    -0.64100
Ni1256     Ni  0.77436584  0.32352693  0.32326385     1.27400
Ni1257     Ni  0.70325608  0.33366543  0.35153759     1.26100
H1258       H  0.68645271  0.29096236  0.38509264     0.41100
O1259       O  0.79005372  0.21881637  0.05482355    -0.78900
O1260       O  0.84947197  0.21928233  0.21437493    -0.63600
O1261       O  0.79710749  0.20562275  0.13252828    -1.10200
C1262       C  0.78364704  0.30981859  0.13286984     1.08000
O1263       O  0.82148016  0.25489934  0.23380538    -0.76800
O1264       O  0.77224930  0.27934110  0.20857995    -0.64400
Ni1265     Ni  0.81353027  0.19169447  0.08578610     1.34900
C1266       C  0.75811318  0.25557752  0.20803813     0.86700
O1267       O  0.83327523  0.17022033  0.17677840    -0.77300
O1268       O  0.83760950  0.16238618  0.11312858    -0.87600
C1269       C  0.84657402  0.24392773  0.22985194     0.86300
O1270       O  0.84536435  0.21965646  0.08327310    -0.65800
O1271       O  0.80370833  0.31210217  0.15817034    -0.85100
C1272       C  0.86385656  0.22421920  0.10973516     0.87100
C1273       C  0.84193161  0.15462954  0.14826995     1.08700
H1274       H  0.83042345  0.26019667  0.14389716     0.40500
O1275       O  0.81573528  0.25293339  0.16122617    -1.07700
O1276       O  0.75894583  0.23870711  0.17795837    -0.64400
Ni1277     Ni  0.78336414  0.24534198  0.13041388     1.26300
O1278       O  0.85963796  0.21531146  0.14344559    -0.64600
O1279       O  0.77073664  0.28568782  0.12568218    -0.76900
C1280       C  0.76597391  0.23279941  0.05981751     0.86500
O1281       O  0.75459854  0.23586346  0.09317167    -0.64100
Ni1282     Ni  0.81276044  0.28367773  0.19726212     1.27400
Ni1283     Ni  0.82430013  0.21147050  0.17252688     1.26100
H1284       H  0.78164572  0.19268541  0.14088851     0.41100
O1285       O  0.78819618  0.04990951  0.46111479    -0.78900
O1286       O  0.84978306  0.04767476  0.30316873    -0.63600
O1287       O  0.79682533  0.06207109  0.38386790    -1.10200
C1288       C  0.76700855  0.44272454  0.38960631     1.08000
O1289       O  0.82047792  0.01344845  0.28298586    -0.76800
O1290       O  0.77064729  0.98957003  0.30666622    -0.64400
Ni1291     Ni  0.81317005  0.07589678  0.43072722     1.34900
C1292       C  0.75679334  0.01342941  0.30794779     0.86700
O1293       O  0.83435465  0.09702886  0.34047328    -0.77300
O1294       O  0.83844930  0.10455679  0.40409602    -0.87600
C1295       C  0.84594772  0.02339321  0.28717731     0.86300
O1296       O  0.84434719  0.04706264  0.43404500    -0.65800
O1297       O  0.78711346  0.43586433  0.36601726    -0.85100
C1298       C  0.86303690  0.04209164  0.40785594     0.87100
C1299       C  0.84318542  0.11241361  0.36912699     1.08700
H1300       H  0.82894757  0.00656369  0.37266667     0.40500
O1301       O  0.81454760  0.01432925  0.35528978    -1.07700
O1302       O  0.75805918  0.03002646  0.33817704    -0.64400
Ni1303     Ni  0.78207024  0.02249024  0.38566294     1.26300
O1304       O  0.85922534  0.05102744  0.37408435    -0.64600
O1305       O  0.75961496  0.46910994  0.39570830    -0.76900
C1306       C  0.76355685  0.03706539  0.45555393     0.86500
O1307       O  0.75303785  0.03296997  0.42195521    -0.64100
Ni1308     Ni  0.80093267  0.45982829  0.32434488     1.27400
Ni1309     Ni  0.82430183  0.05582483  0.34443322     1.26100
H1310       H  0.78176127  0.07532755  0.37522134     0.41100
O1311       O  0.73408093  0.45837653  0.05009701    -0.78900
O1312       O  0.74581047  0.40799746  0.21100901    -0.63600
O1313       O  0.72061328  0.45152361  0.12708814    -1.10200
C1314       C  0.81810709  0.48667695  0.12523660     1.08000
O1315       O  0.77815446  0.44025366  0.23540992    -0.76800
O1316       O  0.78637588  0.49288146  0.20155879    -0.64400
Ni1317     Ni  0.70950240  0.43245277  0.08119668     1.34900
C1318       C  0.74641667  0.00009410  0.20094788     0.86700
O1319       O  0.69316557  0.41098270  0.17313546    -0.77300
O1320       O  0.68293354  0.40669073  0.10972441    -0.87600
C1321       C  0.76202966  0.41766069  0.23760052     0.86300
O1322       O  0.73946978  0.40219991  0.07962283    -0.65800
O1323       O  0.82466717  0.46763016  0.15049950    -0.85100
C1324       C  0.74772809  0.38639290  0.10765932     0.87100
C1325       C  0.67712584  0.40139600  0.14522119     1.08700
H1326       H  0.78027330  0.43040684  0.13981477     0.40500
O1327       O  0.77050503  0.44394783  0.15681680    -1.07700
O1328       O  0.73018797  0.99818260  0.17045363    -0.64400
Ni1329     Ni  0.75597774  0.47337683  0.12463764     1.26300
O1330       O  0.74295698  0.39335137  0.14192363    -0.64600
O1331       O  0.79195974  0.49507033  0.11977731    -0.76900
C1332       C  0.74089556  0.48553059  0.05388528     0.86500
O1333       O  0.74020960  0.49831629  0.08657036    -0.64100
Ni1334     Ni  0.80024589  0.45408338  0.19220163     1.27400
Ni1335     Ni  0.73230556  0.42805799  0.16807321     1.26100
H1336       H  0.70478893  0.46411067  0.13524199     0.41100
O1337       O  0.54036483  0.29732291  0.05148375    -0.78900
O1338       O  0.53657705  0.35349579  0.21313442    -0.63600
O1339       O  0.55284860  0.30380149  0.12930089    -1.10200
C1340       C  0.93455122  0.27351299  0.12747333     1.08000
O1341       O  0.50357082  0.32201133  0.23216211    -0.76800
O1342       O  0.48028082  0.27314877  0.20305069    -0.64400
Ni1343     Ni  0.56595054  0.32177342  0.08315573     1.34900
C1344       C  0.50492600  0.26075744  0.20268729     0.86700
O1345       O  0.58683805  0.34084859  0.17454952    -0.77300
O1346       O  0.59405874  0.34674458  0.11099968    -0.87600
C1347       C  0.51322236  0.34781457  0.23083515     0.86300
O1348       O  0.53638718  0.35220380  0.08179735    -0.65800
O1349       O  0.92808135  0.29381458  0.15094560    -0.85100
C1350       C  0.53114987  0.36999337  0.10890389     0.87100
C1351       C  0.60199352  0.35059012  0.14611173     1.08700
H1352       H  0.97167725  0.33197397  0.13764274     0.40500
O1353       O  0.50479270  0.31963581  0.15892540    -1.07700
O1354       O  0.52182845  0.26326870  0.17294637    -0.64400
Ni1355     Ni  0.51369583  0.28842862  0.12668354     1.26300
O1356       O  0.54021809  0.36546483  0.14247706    -0.64600
O1357       O  0.96087683  0.26648683  0.11995678    -0.76900
C1358       C  0.52809051  0.27228027  0.05585325     0.86500
O1359       O  0.52458905  0.26067605  0.08892679    -0.64100
Ni1360     Ni  0.95264136  0.30874124  0.19121550     1.27400
Ni1361     Ni  0.54583469  0.32983416  0.17028955     1.26100
H1362       H  0.56644245  0.28875396  0.13707307     0.41100
O1363       O  0.95173282  0.24415268  0.46401186    -0.78900
O1364       O  0.90213463  0.25504450  0.30252163    -0.63600
O1365       O  0.94529908  0.23058093  0.38719716    -1.10200
C1366       C  0.98280447  0.32794519  0.38499431     1.08000
O1367       O  0.93478451  0.28645971  0.27724519    -0.76800
O1368       O  0.98765931  0.29444490  0.31107703    -0.64400
Ni1369     Ni  0.92582192  0.21986484  0.43298930     1.34900
C1370       C  0.99468030  0.26769046  0.31220225     0.86700
O1371       O  0.90458556  0.20288747  0.34130732    -0.77300
O1372       O  0.89968663  0.19355047  0.40478013    -0.87600
C1373       C  0.91149048  0.27135405  0.27583945     0.86300
O1374       O  0.89645727  0.25050475  0.43402206    -0.65800
O1375       O  0.96340056  0.33411647  0.36007880    -0.85100
C1376       C  0.88081228  0.25891078  0.40598499     0.87100
C1377       C  0.89456326  0.18733511  0.36940950     1.08700
H1378       H  0.92498088  0.29041118  0.37258396     0.40500
O1379       O  0.93846823  0.28016296  0.35609784    -1.07700
O1380       O  0.99008319  0.25234033  0.34297757    -0.64400
Ni1381     Ni  0.96753250  0.26585577  0.38911412     1.26300
O1382       O  0.88741350  0.25346611  0.37171932    -0.64600
O1383       O  0.98983323  0.30172556  0.39298537    -0.76900
C1384       C  0.97887111  0.25086078  0.46055946     0.86500
O1385       O  0.99196554  0.25037694  0.42805454    -0.64100
Ni1386     Ni  0.94911370  0.30906253  0.31968158     1.27400
Ni1387     Ni  0.92206930  0.24193030  0.34574865     1.26100
H1388       H  0.95780058  0.21455979  0.37941608     0.41100
O1389       O  0.51791855  0.45852253  0.46704218    -0.78900
O1390       O  0.50330980  0.40551176  0.30900285    -0.63600
O1391       O  0.52955453  0.45087035  0.39030913    -1.10200
C1392       C  0.94643607  0.47570143  0.38041558     1.08000
O1393       O  0.46764363  0.43397229  0.28466631    -0.76800
O1394       O  0.46512715  0.48935451  0.31204217    -0.64400
Ni1395     Ni  0.54170422  0.43246353  0.43623421     1.34900
C1396       C  0.50065587  0.00038976  0.30448871     0.86700
O1397       O  0.55612775  0.40974302  0.34478571    -0.77300
O1398       O  0.56744278  0.40650587  0.40794268    -0.87600
C1399       C  0.48473743  0.41209456  0.28363711     0.86300
O1400       O  0.51237528  0.40179283  0.43984896    -0.65800
O1401       O  0.94465815  0.45501264  0.35592212    -0.85100
C1402       C  0.50384963  0.38565608  0.41230738     0.87100
C1403       C  0.57243282  0.40052379  0.37261592     1.08700
H1404       H  0.99659076  0.42991070  0.37172319     0.40500
O1405       O  0.47900564  0.44340577  0.36226568    -1.07700
O1406       O  0.51733712  0.00064906  0.33472464    -0.64400
Ni1407     Ni  0.49462640  0.47334445  0.39328348     1.26300
O1408       O  0.50696965  0.39285586  0.37784409    -0.64600
O1409       O  0.97021040  0.48946897  0.38690032    -0.76900
C1410       C  0.51279205  0.48591707  0.46312720     0.86500
O1411       O  0.51197910  0.49835339  0.43018439    -0.64100
Ni1412     Ni  0.97342575  0.44556919  0.31738160     1.27400
Ni1413     Ni  0.51713647  0.42697627  0.35038290     1.26100
H1414       H  0.54536413  0.46314663  0.38129003     0.41100
O1415       O  0.95217906  0.02632132  0.05424138    -0.78900
O1416       O  0.89826003  0.00926292  0.21176450    -0.63600
O1417       O  0.94372227  0.03728381  0.13113915    -1.10200
C1418       C  0.96817205  0.45249081  0.12051291     1.08000
O1419       O  0.93157698  0.97863175  0.23712498    -0.76800
O1420       O  0.98485768  0.97145790  0.20523894    -0.64400
Ni1421     Ni  0.92604063  0.05017890  0.08506921     1.34900
C1422       C  0.99222573  0.99816147  0.20505916     0.86700
O1423       O  0.90127598  0.06295643  0.17619726    -0.77300
O1424       O  0.89989734  0.07593001  0.11343644    -0.87600
C1425       C  0.90810771  0.99338117  0.23862279     0.86300
O1426       O  0.89539014  0.02105425  0.08011255    -0.65800
O1427       O  0.94765327  0.44992810  0.14501513    -0.85100
C1428       C  0.87932955  0.01111411  0.10688016     0.87100
C1429       C  0.89293370  0.08009403  0.14870696     1.08700
H1430       H  0.92339449  0.97670686  0.14117872     0.40500
O1431       O  0.93638993  0.98661072  0.15875501    -1.07700
O1432       O  0.98775358  0.01430714  0.17509775    -0.64400
Ni1433     Ni  0.96609494  0.00219543  0.12791104     1.26300
O1434       O  0.88588636  0.01352774  0.14172323    -0.64600
O1435       O  0.98018871  0.47692102  0.11260039    -0.76900
C1436       C  0.97933944  0.02024824  0.05867166     0.86500
O1437       O  0.99146517  0.01940289  0.09168770    -0.64100
Ni1438     Ni  0.93670825  0.47815255  0.18322736     1.27400
Ni1439     Ni  0.91933774  0.02424209  0.17043281     1.26100
H1440       H  0.95593299  0.05290948  0.14082016     0.41100
C1441       C  0.50423057  0.01673054  0.23178828    -0.11300
C1442       C  0.50746224  0.01426099  0.26697008    -0.12800
C1443       C  0.48149578  0.33373749  0.40697321    -0.11300
C1444       C  0.49081717  0.35725342  0.41750185    -0.12800
C1445       C  0.51321410  0.39567147  0.10406815    -0.11300
C1446       C  0.49819938  0.41666765  0.11201036    -0.12800
C1447       C  0.48425760  0.39282307  0.25256769    -0.11300
C1448       C  0.49442290  0.37134011  0.23893743    -0.12800
C1449       C  0.51274774  0.24673001  0.23967946    -0.11300
C1450       C  0.50958978  0.24391976  0.27479272    -0.12800
C1451       C  0.65103975  0.38317723  0.15276884    -0.11300
C1452       C  0.62886369  0.36786124  0.15279633    -0.12800
C1453       C  0.85175179  0.99692013  0.10005956    -0.11300
C1454       C  0.82843569  0.98626743  0.10882749    -0.12800
C1455       C  0.87605386  0.16135886  0.36231823    -0.11300
C1456       C  0.86055419  0.13929664  0.36271266    -0.12800
C1457       C  0.90997210  0.00911577  0.40678601    -0.11300
C1458       C  0.88892160  0.02444833  0.41381268    -0.12800
C1459       C  0.87001609  0.00440322  0.28509988    -0.11300
C1460       C  0.89133596  0.99368208  0.27200360    -0.12800
C1461       C  0.74183952  0.02047371  0.27137566    -0.11300
C1462       C  0.73870415  0.01611674  0.23654692    -0.12800
C1463       C  0.87421223  0.10566189  0.15618947    -0.11300
C1464       C  0.85879307  0.12766782  0.15523199    -0.12800
C1465       C  0.88987185  0.24149493  0.10401215    -0.11300
C1466       C  0.91105639  0.25652142  0.11093773    -0.12800
C1467       C  0.87147294  0.26201323  0.23135594    -0.11300
C1468       C  0.89379672  0.27166888  0.24317326    -0.12800
C1469       C  0.77360667  0.33592607  0.11327516    -0.11300
C1470       C  0.76282231  0.35891640  0.10312775    -0.12800
C1471       C  0.61977189  0.36649256  0.36823677    -0.11300
C1472       C  0.59790417  0.38184389  0.36573583    -0.12800
C1473       C  0.83076706  0.28625932  0.40308222    -0.11300
C1474       C  0.85393166  0.27488864  0.41097910    -0.12800
C1475       C  0.73494625  0.39933332  0.41659456    -0.11300
C1476       C  0.75043762  0.41972978  0.40782848    -0.12800
C1477       C  0.76084856  0.40133985  0.27134808    -0.11300
C1478       C  0.75040457  0.38026271  0.28558259    -0.12800
C1479       C  0.74010128  0.25270525  0.28014480    -0.11300
C1480       C  0.74339899  0.24887476  0.24512750    -0.12800
C1481       C  0.50786417  0.25645214  0.51954050    -0.11300
C1482       C  0.99304856  0.26317605  0.49387633    -0.12800
C1483       C  0.98673002  0.25377852  0.99100433    -0.11300
C1484       C  0.51460783  0.25917837  0.02240188    -0.12800
C1485       C  0.98829198  0.26582381  0.77448024    -0.11300
C1486       C  0.99174527  0.26971230  0.73964206    -0.12800
C1487       C  0.75806937  0.25914681  0.52738910    -0.11300
C1488       C  0.74389320  0.26671151  0.49928506    -0.12800
C1489       C  0.64865920  0.24700607  0.60340776    -0.11300
C1490       C  0.67159747  0.23650073  0.61425672    -0.12800
C1491       C  0.75438314  0.24895391  0.02711786    -0.11300
C1492       C  0.74712400  0.26338758  0.99925360    -0.12800
C1493       C  0.60779260  0.24446845  0.76773752    -0.11300
C1494       C  0.62902496  0.25253103  0.78399212    -0.12800
C1495       C  0.59064483  0.25308678  0.91051746    -0.11300
C1496       C  0.61130425  0.26768786  0.92118200    -0.12800
C1497       C  0.75719030  0.26746665  0.78117606    -0.11300
C1498       C  0.76041276  0.26468808  0.74602172    -0.12800
C1499       C  0.87887994  0.14949938  0.65114809    -0.11300
C1500       C  0.90033933  0.13342208  0.65402481    -0.12800
C1501       C  0.50576968  0.00933476  0.48502837    -0.11300
C1502       C  0.99514136  0.01168751  0.52667775    -0.12800
C1503       C  0.01010543  0.15551657  0.60730990    -0.11300
C1504       C  0.02034620  0.17956610  0.61425942    -0.12800
C1505       C  0.00573145  0.13670870  0.78610269    -0.11300
C1506       C  0.01371169  0.11366804  0.77468529    -0.12800
C1507       C  0.62698413  0.40629082  0.86900966    -0.11300
C1508       C  0.64169660  0.38387035  0.87144523    -0.12800
C1509       C  0.50596258  0.50103110  0.99668119    -0.11300
C1510       C  0.99488210  0.01018869  0.02560328    -0.12800
C1511       C  0.98833304  0.49969496  0.73170218    -0.11300
C1512       C  0.99164961  0.49672340  0.76691521    -0.12800
C1513       C  0.98560975  0.11654406  0.91351956    -0.11300
C1514       C  0.00057350  0.09521246  0.90663144    -0.12800
C1515       C  0.63953174  0.37957082  0.65358984    -0.11300
C1516       C  0.62401956  0.35762152  0.65330848    -0.12800
C1517       C  0.74774493  0.49477845  0.52447615    -0.11300
C1518       C  0.74975881  0.02361153  0.48851010    -0.12800
C1519       C  0.60977867  0.49344761  0.60748734    -0.11300
C1520       C  0.57752926  0.03218439  0.60286199    -0.12800
C1521       C  0.61331987  0.52178301  0.75272840    -0.11300
C1522       C  0.63558252  0.51333244  0.73933501    -0.12800
C1523       C  0.74835974  0.10091495  0.60755776    -0.11300
C1524       C  0.76361866  0.12187167  0.59998897    -0.12800
C1525       C  0.84988446  0.12994572  0.85881911    -0.11300
C1526       C  0.87159278  0.14563241  0.86056257    -0.12800
C1527       C  0.73862773  0.00317182  0.02036581    -0.11300
C1528       C  0.75093984  0.01173869  0.99164449    -0.12800
C1529       C  0.65994709  0.00759089  0.90431141    -0.11300
C1530       C  0.65067732  0.51637187  0.91824971    -0.12800
C1531       C  0.74756249  0.13523125  0.73042743    -0.11300
C1532       C  0.73783420  0.11361930  0.74408985    -0.12800
C1533       C  0.74245850  0.15306562  0.91656172    -0.11300
C1534       C  0.73155604  0.17651480  0.90901098    -0.12800
C1535       C  0.76378927  0.49548966  0.77718633    -0.11300
C1536       C  0.76085786  0.49255006  0.74208032    -0.12800
O1537       O  0.75346004  0.56984500  0.78295704    -0.78900
O1538       O  0.77641429  0.51136110  0.92683260    -0.63600
O1539       O  0.75507233  0.56921079  0.85625589    -1.10200
C1540       C  0.85166743  0.60153489  0.86737867     1.08000
O1541       O  0.79079302  0.54893083  0.96360477    -0.76800
O1542       O  0.78692457  0.60398512  0.93198425    -0.64400
Ni1543     Ni  0.72487123  0.56236146  0.82037635     1.34900
C1544       C  0.78158000  0.62133070  0.90434766     0.86700
O1545       O  0.72479745  0.52404633  0.89510407    -0.77300
O1546       O  0.69693165  0.55453102  0.86044256    -0.87600
C1547       C  0.77942030  0.52337271  0.95968084     0.86300
O1548       O  0.73092491  0.52146577  0.81397704    -0.65800
O1549       O  0.84413706  0.59788130  0.90267802    -0.85100
C1550       C  0.75585844  0.50965057  0.81403048     0.87100
C1551       C  0.70007121  0.53579158  0.88731535     1.08700
H1552       H  0.81729510  0.53961960  0.87825071     0.40500
O1553       O  0.80346292  0.55454510  0.88571199    -1.07700
O1554       O  0.78981021  0.61583878  0.87063721    -0.64400
Ni1555     Ni  0.79585302  0.57970121  0.84409686     1.26300
O1556       O  0.77303622  0.51302161  0.84328786    -0.64600
O1557       O  0.83656362  0.59125434  0.83924383    -0.76900
C1558       C  0.76281621  0.59574737  0.78313903     0.86500
O1559       O  0.78613465  0.60219284  0.80044626    -0.64100
Ni1560     Ni  0.81630246  0.57325101  0.93135220     1.27400
Ni1561     Ni  0.76469504  0.53855892  0.88901144     1.26100
H1562       H  0.74690713  0.58418257  0.87254729     0.41100
O1563       O  0.68162678  0.03756195  0.73187113    -0.78900
O1564       O  0.73940644  0.99882473  0.58298971    -0.63600
O1565       O  0.68573524  0.03103158  0.65299447    -1.10200
C1566       C  0.64175251  0.93761250  0.64365383     1.08000
O1567       O  0.69965542  0.99108305  0.54666667    -0.76800
O1568       O  0.64356829  0.99639194  0.57407163    -0.64400
Ni1569     Ni  0.69445233  0.53302233  0.69804756     1.34900
C1570       C  0.62810298  0.00697791  0.60095517     0.86700
O1571       O  0.73458092  0.53366922  0.62458489    -0.77300
O1572       O  0.70395328  0.56135778  0.65916373    -0.87600
C1573       C  0.72653805  0.99868693  0.55030216     0.86300
O1574       O  0.73478440  0.04439149  0.69926868    -0.65800
O1575       O  0.64821073  0.94151991  0.60810402    -0.85100
C1576       C  0.74116585  0.01748171  0.69872458     0.87100
C1577       C  0.72310770  0.55837302  0.63281881     1.08700
H1578       H  0.70447103  0.96478514  0.63377178     0.40500
O1579       O  0.69226786  0.98049173  0.62427839    -1.07700
O1580       O  0.63490437  0.00471738  0.63576213    -0.64400
Ni1581     Ni  0.66836510  0.99354132  0.66424365     1.26300
O1582       O  0.73674733  0.00208573  0.66797952    -0.64600
O1583       O  0.65028657  0.95505471  0.67056779    -0.76900
C1584       C  0.65772943  0.02349693  0.73303719     0.86500
O1585       O  0.64747363  0.00842332  0.70572876    -0.64100
Ni1586     Ni  0.67406210  0.96721586  0.57865503     1.27400
Ni1587     Ni  0.71491503  0.01546296  0.62113716     1.26100
H1588       H  0.67357214  0.51147843  0.64478908     0.41100
O1589       O  0.56976181  0.00456920  0.77924708    -0.78900
O1590       O  0.50264209  0.98574157  0.91968079    -0.63600
O1591       O  0.56410541  0.52511848  0.86207173    -1.10200
C1592       C  0.59147171  0.90565249  0.86624554     1.08000
O1593       O  0.53834519  0.96954616  0.95835313    -0.76800
O1594       O  0.59387432  0.97069939  0.93118051    -0.64400
Ni1595     Ni  0.55366982  0.55420051  0.82588009     1.34900
C1596       C  0.61236689  0.97574557  0.90487150     0.86700
O1597       O  0.51161825  0.54527752  0.89819655    -0.77300
O1598       O  0.53743609  0.57843863  0.86569458    -0.87600
C1599       C  0.51411409  0.98314387  0.95307528     0.86300
O1600       O  0.51983962  0.02822817  0.80295707    -0.65800
O1601       O  0.58679597  0.91332478  0.90133323    -0.85100
C1602       C  0.50615263  0.00421270  0.80400621     0.87100
C1603       C  0.51773546  0.57173044  0.88990181     1.08700
H1604       H  0.53080202  0.94279084  0.87255644     0.40500
O1605       O  0.54591162  0.95609216  0.88104656    -1.07700
O1606       O  0.60827239  0.96721745  0.87095227    -0.64400
Ni1607     Ni  0.57325842  0.96222992  0.84143012     1.26300
O1608       O  0.50719763  0.98781546  0.83457423    -0.64600
O1609       O  0.58299842  0.92120066  0.83766496    -0.76900
C1610       C  0.59509842  0.99421580  0.78339466     0.86500
O1611       O  0.59871741  0.97016376  0.80009585    -0.64100
Ni1612     Ni  0.56223252  0.94252313  0.92808636     1.27400
Ni1613     Ni  0.53124758  0.99551095  0.88234916     1.26100
H1614       H  0.57708366  0.53536251  0.87933397     0.41100
O1615       O  0.99567523  0.57381272  0.72520349    -0.78900
O1616       O  0.97758232  0.51457631  0.57881398    -0.63600
O1617       O  0.99491281  0.57267741  0.65148970    -1.10200
C1618       C  0.89732471  0.60033972  0.64054696     1.08000
O1619       O  0.96031289  0.55121837  0.54261022    -0.76800
O1620       O  0.96199310  0.60524044  0.57486131    -0.64400
Ni1621     Ni  0.54576596  0.55631377  0.70043158     1.34900
C1622       C  0.96715110  0.62256604  0.60246310     0.86700
O1623       O  0.53801519  0.51584582  0.62740450    -0.77300
O1624       O  0.57082240  0.54200099  0.66025155    -0.87600
C1625       C  0.97457528  0.52710085  0.54612416     0.86300
O1626       O  0.02041534  0.52627895  0.69443974    -0.65800
O1627       O  0.90469348  0.59722058  0.60498805    -0.85100
C1628       C  0.99595869  0.51355143  0.69427158     0.87100
C1629       C  0.56440199  0.52275542  0.63520026     1.08700
H1630       H  0.93438588  0.54003572  0.62855796     0.40500
O1631       O  0.94747258  0.55565186  0.62113685    -1.07700
O1632       O  0.95797192  0.61747120  0.63585506    -0.64400
Ni1633     Ni  0.95382977  0.58123912  0.66296654     1.26300
O1634       O  0.97918043  0.51565300  0.66425176    -0.64600
O1635       O  0.91288697  0.59034012  0.66820933    -0.76900
C1636       C  0.98536015  0.59934622  0.72463926     0.86500
O1637       O  0.96233279  0.60483022  0.70616452    -0.64100
Ni1638     Ni  0.93353614  0.57383553  0.57553980     1.27400
Ni1639     Ni  0.98699111  0.54167570  0.61836897     1.26100
H1640       H  0.52815154  0.58082673  0.64704333     0.41100
O1641       O  0.68262060  0.73018654  0.77498346    -0.78900
O1642       O  0.74086665  0.77139817  0.92274869    -0.63600
O1643       O  0.68718251  0.73853217  0.85346246    -1.10200
C1644       C  0.64238930  0.83110252  0.86464889     1.08000
O1645       O  0.70093548  0.77676512  0.95940126    -0.76800
O1646       O  0.64481132  0.77020727  0.93117010    -0.64400
Ni1647     Ni  0.69819232  0.70919618  0.81784740     1.34900
C1648       C  0.62896169  0.76120247  0.90363608     0.86700
O1649       O  0.73949729  0.71884712  0.89043692    -0.77300
O1650       O  0.71374779  0.68537351  0.85851480    -0.87600
C1651       C  0.72836754  0.77169696  0.95555808     0.86300
O1652       O  0.73606990  0.72495132  0.80729114    -0.65800
O1653       O  0.64828950  0.82591863  0.90001282    -0.85100
C1654       C  0.74320140  0.75173501  0.80871735     0.87100
C1655       C  0.73326315  0.69233472  0.88283171     1.08700
H1656       H  0.70550327  0.80491156  0.87382619     0.40500
O1657       O  0.69338982  0.78887237  0.88250950    -1.07700
O1658       O  0.63583244  0.76487836  0.86905607    -0.64400
Ni1659     Ni  0.66998460  0.77623670  0.84197558     1.26300
O1660       O  0.73828239  0.76725815  0.83912115    -0.64600
O1661       O  0.65179441  0.81492730  0.83673548    -0.76900
C1662       C  0.65921465  0.74501769  0.77328842     0.86500
O1663       O  0.64984249  0.76183943  0.79945713    -0.64100
Ni1664     Ni  0.67459515  0.80035705  0.92838952     1.27400
Ni1665     Ni  0.71628484  0.75417356  0.88550069     1.26100
H1666       H  0.67397483  0.72839490  0.87050447     0.41100
O1667       O  0.71432013  0.67940186  0.72880834    -0.78900
O1668       O  0.76310148  0.74886074  0.58545706    -0.63600
O1669       O  0.73024801  0.69421425  0.65420886    -1.10200
C1670       C  0.82433778  0.65257210  0.64516310     1.08000
O1671       O  0.76900851  0.70883660  0.54921214    -0.76800
O1672       O  0.76352429  0.65244580  0.57878151    -0.64400
Ni1673     Ni  0.69889761  0.70300670  0.68855977     1.34900
C1674       C  0.75585366  0.63637839  0.60687777     0.86700
O1675       O  0.71081514  0.74669598  0.61497811    -0.77300
O1676       O  0.67743287  0.72589213  0.65207180    -0.87600
C1677       C  0.76361935  0.73624821  0.55271172     0.86300
O1678       O  0.71865264  0.73604008  0.70895930    -0.65800
O1679       O  0.81886603  0.65772029  0.60971998    -0.85100
C1680       C  0.74296448  0.74853962  0.70213375     0.87100
C1681       C  0.68467773  0.74359528  0.62592454     1.08700
H1682       H  0.79654946  0.71503758  0.63488537     0.40500
O1683       O  0.78093412  0.70228798  0.62642713    -1.07700
O1684       O  0.75966669  0.64394281  0.64111420    -0.64400
Ni1685     Ni  0.76907667  0.67900922  0.66714145     1.26300
O1686       O  0.75653401  0.74689405  0.66929341    -0.64600
O1687       O  0.80848308  0.66266762  0.67295226    -0.76900
C1688       C  0.73491523  0.66111187  0.73215268     0.86500
O1689       O  0.75647595  0.65829188  0.70986158    -0.64100
Ni1690     Ni  0.79293796  0.68319994  0.58086876     1.27400
Ni1691     Ni  0.74575907  0.72401186  0.62236015     1.26100
H1692       H  0.72134609  0.68054974  0.63663878     0.41100
O1693       O  0.03122313  0.68489399  0.78161190    -0.78900
O1694       O  0.98933780  0.74882356  0.92800729    -0.63600
O1695       O  0.01991688  0.69328196  0.85926592    -1.10200
C1696       C  0.92557594  0.65322014  0.86824766     1.08000
O1697       O  0.98235986  0.70891187  0.96437170    -0.76800
O1698       O  0.98730672  0.65251128  0.93503904    -0.64400
Ni1699     Ni  0.52557372  0.69593710  0.81918061     1.34900
C1700       C  0.99499809  0.63643288  0.90696186     0.86700
O1701       O  0.52710969  0.73727781  0.89181763    -0.77300
O1702       O  0.55406277  0.70575747  0.85748330    -0.87600
C1703       C  0.98949933  0.73598317  0.96072717     0.86300
O1704       O  0.03655896  0.73961420  0.81117523    -0.65800
O1705       O  0.93119710  0.65807709  0.90388281    -0.85100
C1706       C  0.01012793  0.74811338  0.81194274     0.87100
C1707       C  0.55155470  0.72546992  0.88313719     1.08700
H1708       H  0.95419763  0.71521261  0.87894972     0.40500
O1709       O  0.96970885  0.70233085  0.88736789    -1.07700
O1710       O  0.99017026  0.64354192  0.87286379    -0.64400
Ni1711     Ni  0.98127682  0.67860017  0.84677761     1.26300
O1712       O  0.99423478  0.74528488  0.84271352    -0.64600
O1713       O  0.94179731  0.66294786  0.84067621    -0.76900
C1714       C  0.01339348  0.66356826  0.77993894     0.86500
O1715       O  0.99440414  0.65734201  0.80491198    -0.64100
Ni1716     Ni  0.95779702  0.68334978  0.93295174     1.27400
Ni1717     Ni  0.00539673  0.72349447  0.89052958     1.26100
H1718       H  0.50332599  0.67703928  0.87301453     0.41100
O1719       O  0.56975190  0.76212466  0.73076426    -0.78900
O1720       O  0.50489861  0.78237770  0.58964172    -0.63600
O1721       O  0.56532896  0.76366615  0.65807433    -1.10200
C1722       C  0.59226287  0.86233165  0.64649371     1.08000
O1723       O  0.54051371  0.80003763  0.55179017    -0.76800
O1724       O  0.59615120  0.79809911  0.58062503    -0.64400
Ni1725     Ni  0.56104330  0.73321031  0.69455737     1.34900
C1726       C  0.61437749  0.79311134  0.60734344     0.86700
O1727       O  0.52010877  0.73113187  0.62160423    -0.77300
O1728       O  0.55172802  0.70447866  0.65618992    -0.87600
C1729       C  0.51581505  0.78716478  0.55643594     0.86300
O1730       O  0.52052154  0.73841386  0.70465824    -0.65800
O1731       O  0.58832744  0.85476814  0.61132274    -0.85100
C1732       C  0.00828985  0.74897531  0.70040692     0.87100
C1733       C  0.53166773  0.70656296  0.63091072     1.10300
H1734       H  0.53212274  0.82437558  0.63788260     0.40500
O1735       O  0.54754418  0.81143674  0.62950403    -1.07700
O1736       O  0.60970262  0.80117861  0.64131963    -0.64400
Ni1737     Ni  0.57419851  0.80518215  0.66988421     1.26300
O1738       O  0.50854339  0.77904576  0.67324936    -0.64600
O1739       O  0.58349121  0.84648121  0.67474806    -0.76900
C1740       C  0.59516010  0.77234564  0.72721768     0.86500
O1741       O  0.59883174  0.79699490  0.71211371    -0.64100
Ni1742     Ni  0.56430655  0.82608083  0.58341727     1.27400
Ni1743     Ni  0.53338368  0.77178705  0.62661694     1.26100
H1744       H  0.58024310  0.75624413  0.64115662     0.41100
O1745       O  0.73061208  0.80547773  0.45944860    -0.78900
O1746       O  0.74249189  0.85464995  0.29859534    -0.63600
O1747       O  0.71668181  0.81210238  0.38304565    -1.10200
C1748       C  0.81408603  0.77374616  0.38285696     1.08000
O1749       O  0.77268812  0.82037423  0.27465727    -0.76800
O1750       O  0.78139108  0.76807590  0.30936944    -0.64400
Ni1751     Ni  0.70616510  0.83156348  0.42892354     1.34900
C1752       C  0.75455674  0.76153373  0.30900552     0.86700
O1753       O  0.68976901  0.85371765  0.33761314    -0.77300
O1754       O  0.67967535  0.85733012  0.40113402    -0.87600
C1755       C  0.75959529  0.84481374  0.27300760     0.86300
O1756       O  0.73576475  0.86242778  0.43005143    -0.65800
O1757       O  0.82046847  0.79308869  0.35790091    -0.85100
C1758       C  0.74421422  0.87797607  0.40173325     0.87100
C1759       C  0.67410007  0.86344825  0.36593649     1.08700
H1760       H  0.77681394  0.83151554  0.36956829     0.40500
O1761       O  0.76656858  0.81811584  0.35285665    -1.07700
O1762       O  0.73842396  0.76673978  0.33889819    -0.64400
Ni1763     Ni  0.75163128  0.78921708  0.38542505     1.26300
O1764       O  0.74053305  0.86992806  0.36758306    -0.64600
O1765       O  0.78765589  0.76667047  0.39027517    -0.76900
C1766       C  0.73514487  0.77784494  0.45617093     0.86500
O1767       O  0.73506805  0.76491122  0.42358311    -0.64100
Ni1768     Ni  0.79560913  0.80683827  0.31701225     1.27400
Ni1769     Ni  0.72859307  0.83521376  0.34189367     1.26100
H1770       H  0.70051061  0.79985874  0.37506595     0.41100
O1771       O  0.79859076  0.73889230  0.04694549    -0.78900
O1772       O  0.85054435  0.74945506  0.20635928    -0.63600
O1773       O  0.80619687  0.72439785  0.12308873    -1.10200
C1774       C  0.76799790  0.82141184  0.12488379     1.08000
O1775       O  0.81816533  0.78117789  0.23140890    -0.76800
O1776       O  0.76466764  0.78864452  0.19991724    -0.64400
Ni1777     Ni  0.82514364  0.71449190  0.07661104     1.34900
C1778       C  0.75697388  0.76204947  0.19880064     0.86700
O1779       O  0.84748599  0.69691152  0.16748305    -0.77300
O1780       O  0.85129860  0.68798638  0.10363923    -0.87600
C1781       C  0.84213061  0.76719087  0.23199955     0.86300
O1782       O  0.85533314  0.74465332  0.07525864    -0.65800
O1783       O  0.78777672  0.82789392  0.14911171    -0.85100
C1784       C  0.87138534  0.75230521  0.10338372     0.87100
C1785       C  0.85679648  0.68150632  0.13874714     1.08700
H1786       H  0.82639007  0.78419162  0.13623488     0.40500
O1787       O  0.81316760  0.77411007  0.15333192    -1.07700
O1788       O  0.76164619  0.74631471  0.16836868    -0.64400
Ni1789     Ni  0.78360772  0.75935045  0.12150192     1.26300
O1790       O  0.86428407  0.74730755  0.13751749    -0.64600
O1791       O  0.76098493  0.79506720  0.11749484    -0.76900
C1792       C  0.77104013  0.74332152  0.05106642     0.86500
O1793       O  0.75865054  0.74299425  0.08399066    -0.64100
Ni1794     Ni  0.80294502  0.80333009  0.18937095     1.27400
Ni1795     Ni  0.82985946  0.73595271  0.16382611     1.26100
H1796       H  0.79399362  0.70818854  0.13103653     0.41100
O1797       O  0.79835865  0.52587586  0.46595908    -0.78900
O1798       O  0.84715083  0.51417450  0.30425250    -0.63600
O1799       O  0.80478607  0.53955403  0.38917290    -1.10200
C1800       C  0.77994235  0.95728440  0.38093709     1.08000
O1801       O  0.81460512  0.48165702  0.28111507    -0.76800
O1802       O  0.76228918  0.47406462  0.31581847    -0.64400
Ni1803     Ni  0.82468663  0.54975482  0.43472834     1.34900
C1804       C  0.75631481  0.50101655  0.31415222     0.86700
O1805       O  0.84483390  0.56664326  0.34249535    -0.77300
O1806       O  0.85086928  0.57565340  0.40600404    -0.87600
C1807       C  0.83770423  0.49693155  0.27867041     0.86300
O1808       O  0.85398110  0.51881062  0.43523523    -0.65800
O1809       O  0.80037989  0.95514661  0.35611859    -0.85100
C1810       C  0.86970236  0.51117425  0.40681760     0.87100
C1811       C  0.85538939  0.58193475  0.37048583     1.08700
H1812       H  0.82503766  0.47987086  0.37634883     0.40500
O1813       O  0.81152553  0.48964521  0.35932018    -1.07700
O1814       O  0.76057397  0.51749206  0.34406404    -0.64400
Ni1815     Ni  0.78228243  0.50460329  0.39147314     1.26300
O1816       O  0.86265754  0.51688150  0.37284390    -0.64600
O1817       O  0.76836392  0.98191851  0.38988476    -0.76900
C1818       C  0.77102024  0.51973484  0.46264117     0.86500
O1819       O  0.75787186  0.52067532  0.43011055    -0.64100
Ni1820     Ni  0.81083619  0.98417063  0.31840869     1.27400
Ni1821     Ni  0.82759749  0.52773326  0.34763455     1.26100
H1822       H  0.79243776  0.55572072  0.38152813     0.41100
O1823       O  0.71171767  0.96556089  0.04844637    -0.78900
O1824       O  0.71384474  0.90685775  0.20795390    -0.63600
O1825       O  0.69883973  0.95846921  0.12598868    -1.10200
C1826       C  0.80239395  0.97562714  0.12776683     1.08000
O1827       O  0.74816825  0.93607749  0.22838700    -0.76800
O1828       O  0.77031274  0.98624100  0.20338378    -0.64400
Ni1829     Ni  0.68554134  0.94132020  0.07941074     1.34900
C1830       C  0.75962366  0.50005975  0.20180136     0.86700
O1831       O  0.66455199  0.92179118  0.17045111    -0.77300
O1832       O  0.65697960  0.91664446  0.10685614    -0.87600
C1833       C  0.73790805  0.91068647  0.22457153     0.86300
O1834       O  0.71448812  0.91026982  0.07713594    -0.65800
O1835       O  0.80510241  0.95610429  0.15365302    -0.85100
C1836       C  0.71944935  0.89210243  0.10389206     0.87100
C1837       C  0.64921700  0.91265149  0.14201859     1.08700
H1838       H  0.75450579  0.92691106  0.13833528     0.40500
O1839       O  0.74660289  0.94153223  0.15529964    -1.07700
O1840       O  0.74354768  0.49572734  0.17158012    -0.64400
Ni1841     Ni  0.73802703  0.97340860  0.12390067     1.26300
O1842       O  0.71036967  0.89643302  0.13747597    -0.64600
O1843       O  0.77791347  0.98737500  0.11938097    -0.76900
C1844       C  0.72438012  0.99032354  0.05338065     0.86500
O1845       O  0.72756011  0.00169264  0.08665094    -0.64100
Ni1846     Ni  0.77668068  0.94596869  0.19207654     1.27400
Ni1847     Ni  0.70545222  0.93176642  0.16622155     1.26100
H1848       H  0.68541019  0.97353631  0.13413263     0.41100
O1849       O  0.51989040  0.80330677  0.04841021    -0.78900
O1850       O  0.50564918  0.85652554  0.20770563    -0.63600
O1851       O  0.53183018  0.81133986  0.12548574    -1.10200
C1852       C  0.94897706  0.78644407  0.12951565     1.08000
O1853       O  0.47498519  0.82342197  0.23339782    -0.76800
O1854       O  0.46722175  0.77040120  0.20102182    -0.64400
Ni1855     Ni  0.54413694  0.82921285  0.07929350     1.34900
C1856       C  0.49410857  0.76395855  0.20133736     0.86700
O1857       O  0.55844150  0.85311025  0.17068270    -0.77300
O1858       O  0.57010184  0.85534799  0.10753363    -0.87600
C1859       C  0.48967344  0.84691565  0.23460725     0.86300
O1860       O  0.51468311  0.85948915  0.07552198    -0.65800
O1861       O  0.94627729  0.80557151  0.15599698    -0.85100
C1862       C  0.50542926  0.87569022  0.10251818     0.87100
C1863       C  0.57495427  0.86180913  0.14283672     1.08700
H1864       H  0.99663606  0.83447441  0.14236960     0.40500
O1865       O  0.48173956  0.81885048  0.15485008    -1.07700
O1866       O  0.50989029  0.76781140  0.17079352    -0.64400
Ni1867     Ni  0.49664131  0.78904778  0.12342354     1.26300
O1868       O  0.50878408  0.86938708  0.13736986    -0.64600
O1869       O  0.97353389  0.77447869  0.12141537    -0.76900
C1870       C  0.51239297  0.77645821  0.05257370     0.86500
O1871       O  0.51259901  0.76387906  0.08548233    -0.64100
Ni1872     Ni  0.97468134  0.81395107  0.19532722     1.27400
Ni1873     Ni  0.51964306  0.83556960  0.16559387     1.26100
H1874       H  0.54760207  0.79903023  0.13456179     0.41100
O1875       O  0.95950603  0.71889547  0.46348334    -0.78900
O1876       O  0.90273071  0.72177629  0.30342928    -0.63600
O1877       O  0.95275631  0.70511114  0.38629219    -1.10200
C1878       C  0.97168484  0.80806630  0.38623690     1.08000
O1879       O  0.93339931  0.75529529  0.28349512    -0.76800
O1880       O  0.98329461  0.77679401  0.31122292    -0.64400
Ni1881     Ni  0.93483000  0.69284260  0.43273021     1.34900
C1882       C  0.99551830  0.75200525  0.31169063     0.86700
O1883       O  0.91565482  0.67163135  0.34155414    -0.77300
O1884       O  0.91011992  0.66436726  0.40526326    -0.87600
C1885       C  0.90780026  0.74520486  0.28568048     0.86300
O1886       O  0.90380560  0.72215270  0.43395676    -0.65800
O1887       O  0.95232875  0.81125687  0.36020011    -0.85100
C1888       C  0.88599154  0.72705534  0.40666743     0.87100
C1889       C  0.90623527  0.65646903  0.37011819     1.08700
H1890       H  0.92270630  0.76137974  0.37401906     0.40500
O1891       O  0.93725471  0.75325242  0.35699894    -1.07700
O1892       O  0.99314576  0.73523653  0.34158461    -0.64400
Ni1893     Ni  0.96882859  0.74379144  0.38840569     1.26300
O1894       O  0.89102650  0.71810640  0.37323162    -0.64600
O1895       O  0.98375274  0.78345013  0.39332202    -0.76900
C1896       C  0.98506542  0.73000432  0.45865817     0.86500
O1897       O  0.99674449  0.73231296  0.42546678    -0.64100
Ni1898     Ni  0.94278149  0.78343233  0.32072254     1.27400
Ni1899     Ni  0.92670662  0.71242274  0.34567150     1.26100
H1900       H  0.96748058  0.69116521  0.37853262     0.41100
O1901       O  0.53699435  0.97340116  0.45925823    -0.78900
O1902       O  0.53827020  0.90947481  0.30297924    -0.63600
O1903       O  0.55078502  0.96424982  0.38210071    -1.10200
C1904       C  0.93295249  0.99119384  0.39017905     1.08000
O1905       O  0.50250728  0.93649868  0.28132881    -0.76800
O1906       O  0.47713028  0.98583434  0.30429166    -0.64400
Ni1907     Ni  0.56417233  0.94863769  0.42959577     1.34900
C1908       C  0.49152622  0.49777316  0.31443930     0.86700
O1909       O  0.58676944  0.92732525  0.33967112    -0.77300
O1910       O  0.59355313  0.92330304  0.40349461    -0.87600
C1911       C  0.51421288  0.91179698  0.28590163     0.86300
O1912       O  0.53550506  0.91729458  0.43267381    -0.65800
O1913       O  0.92570354  0.97126867  0.36665533    -0.85100
C1914       C  0.53177391  0.89808157  0.40684480     0.87100
C1915       C  0.60168376  0.91828029  0.36854514     1.08700
H1916       H  0.96952004  0.93024732  0.37999655     0.40500
O1917       O  0.50392226  0.94419927  0.35376522    -1.07700
O1918       O  0.50675312  0.49457575  0.34566818    -0.64400
Ni1919     Ni  0.51079733  0.97744790  0.38318408     1.26300
O1920       O  0.54220730  0.90136103  0.37379217    -0.64600
O1921       O  0.95948776  0.99671627  0.39819578    -0.76900
C1922       C  0.52253899  0.99710665  0.45301268     0.86500
O1923       O  0.51949447  0.00744727  0.41907870    -0.64100
Ni1924     Ni  0.94863668  0.95278595  0.32712491     1.27400
Ni1925     Ni  0.54550044  0.93597268  0.34327818     1.26100
H1926       H  0.56365783  0.97962993  0.37340736     0.41100
O1927       O  0.95942189  0.54320088  0.04059386    -0.78900
O1928       O  0.89737743  0.54024419  0.19683128    -0.63600
O1929       O  0.95136852  0.55602821  0.11802690    -1.10200
C1930       C  0.98155938  0.93994346  0.12973913     1.08000
O1931       O  0.92600825  0.50613664  0.22012386    -0.76800
O1932       O  0.97673946  0.48445072  0.19601556    -0.64400
Ni1933     Ni  0.93470198  0.56931710  0.07111277     1.34900
C1934       C  0.99019299  0.50862431  0.19482401     0.86700
O1935       O  0.91458735  0.59013909  0.16212406    -0.77300
O1936       O  0.90964981  0.59798881  0.09851180    -0.87600
C1937       C  0.90103055  0.51743143  0.21634905     0.86300
O1938       O  0.90426423  0.53957184  0.06819279    -0.65800
O1939       O  0.96161239  0.93309030  0.15355267    -0.85100
C1940       C  0.88585873  0.53494094  0.09469978     0.87100
C1941       C  0.90579335  0.60578852  0.13381380     1.08700
H1942       H  0.91908598  0.50030820  0.12876971     0.40500
O1943       O  0.93333703  0.50820574  0.14633458    -1.07700
O1944       O  0.98948175  0.52474384  0.16411025    -0.64400
Ni1945     Ni  0.96606512  0.51676285  0.11630749     1.26300
O1946       O  0.88918450  0.54603400  0.12723193    -0.64600
O1947       O  0.98852230  0.96640207  0.12279704    -0.76900
C1948       C  0.98376288  0.52982571  0.04604184     0.86500
O1949       O  0.99494171  0.52701832  0.07957035    -0.64100
Ni1950     Ni  0.94652949  0.95702872  0.19439024     1.27400
Ni1951     Ni  0.92384314  0.54920092  0.15726356     1.26100
H1952       H  0.96630195  0.56944772  0.12664071     0.41100
C1953       C  0.50284322  0.50915637  0.24236290    -0.11300
C1954       C  0.50322753  0.50874283  0.27773821    -0.12800
C1955       C  0.49874914  0.85160301  0.40310015    -0.11300
C1956       C  0.51359660  0.87257074  0.41182692    -0.12800
C1957       C  0.49083146  0.90300888  0.09558740    -0.11300
C1958       C  0.47966132  0.92631543  0.10298718    -0.12800
C1959       C  0.49761831  0.88629493  0.28119051    -0.11300
C1960       C  0.48913203  0.86425060  0.26743113    -0.12800
C1961       C  0.50539840  0.75531267  0.23953280    -0.11300
C1962       C  0.50495399  0.75585704  0.27500837    -0.12800
C1963       C  0.62248970  0.89571908  0.14912478    -0.11300
C1964       C  0.60054316  0.88035038  0.15008273    -0.12800
C1965       C  0.86130386  0.51537554  0.09145392    -0.11300
C1966       C  0.84118092  0.50076840  0.10357264    -0.12800
C1967       C  0.88917293  0.62969067  0.36335997    -0.11300
C1968       C  0.87380560  0.60767971  0.36304345    -0.12800
C1969       C  0.92015439  0.48534993  0.39997562    -0.11300
C1970       C  0.89714935  0.49588598  0.41053337    -0.12800
C1971       C  0.85486800  0.49541831  0.24580701    -0.11300
C1972       C  0.87612386  0.50247522  0.22889602    -0.12800
C1973       C  0.74816163  0.51139881  0.27518674    -0.11300
C1974       C  0.74865175  0.51035227  0.23964161    -0.12800
C1975       C  0.88945025  0.63286015  0.14158200    -0.11300
C1976       C  0.87475648  0.65521940  0.14436941    -0.12800
C1977       C  0.89942136  0.76664139  0.09920377    -0.11300
C1978       C  0.92282214  0.77658336  0.10954076    -0.12800
C1979       C  0.86139169  0.77041218  0.26269552    -0.11300
C1980       C  0.88371166  0.76290018  0.27676702    -0.12800
C1981       C  0.75170648  0.84494504  0.10700614    -0.11300
C1982       C  0.73703674  0.86616223  0.09879177    -0.12800
C1983       C  0.64891516  0.88315047  0.35978426    -0.11300
C1984       C  0.62779830  0.89983082  0.36189301    -0.12800
C1985       C  0.83788942  0.75812667  0.40162238    -0.11300
C1986       C  0.85949923  0.74421127  0.41080896    -0.12800
C1987       C  0.75801634  0.90651802  0.40599224    -0.11300
C1988       C  0.76837786  0.93037370  0.39788827    -0.12800
C1989       C  0.75600235  0.88608070  0.22888477    -0.11300
C1990       C  0.76342191  0.86320844  0.24148567    -0.12800
C1991       C  0.74384802  0.75142718  0.27114454    -0.11300
C1992       C  0.74533771  0.75095226  0.23570840    -0.12800
C1993       C  0.50230559  0.77459562  0.52281204    -0.11300
C1994       C  0.99858419  0.74392901  0.49139283    -0.12800
C1995       C  0.00242728  0.75010539  0.99381825    -0.11300
C1996       C  0.49917022  0.76240141  0.01964388    -0.12800
C1997       C  0.99921742  0.75870411  0.77435223    -0.11300
C1998       C  0.99913844  0.75943904  0.73884886    -0.12800
C1999       C  0.75383675  0.75157278  0.51907689    -0.11300
C2000       C  0.74461490  0.76245755  0.48991500    -0.12800
C2001       C  0.64078293  0.77640607  0.60160778    -0.11300
C2002       C  0.66199548  0.76150116  0.60895444    -0.12800
C2003       C  0.75514322  0.75291469  0.01789667    -0.11300
C2004       C  0.74396503  0.76211793  0.98897388    -0.12800
C2005       C  0.61943470  0.75348347  0.72837891    -0.11300
C2006       C  0.64158968  0.74385106  0.74061608    -0.12800
C2007       C  0.57785635  0.73622814  0.90129540    -0.11300
C2008       C  0.60133568  0.74678708  0.90949617    -0.12800
C2009       C  0.75432403  0.76350440  0.77213748    -0.11300
C2010       C  0.75485339  0.76247298  0.73681618    -0.12800
C2011       C  0.84963016  0.63358476  0.65215011    -0.11300
C2012       C  0.87105240  0.61759115  0.64937558    -0.12800
C2013       C  0.50375737  0.50133877  0.49692460    -0.11300
C2014       C  0.99093163  0.51651436  0.51271779    -0.12800
C2015       C  0.98546907  0.64805666  0.59839741    -0.11300
C2016       C  0.00120416  0.66848580  0.60649124    -0.12800
C2017       C  0.01349493  0.64445092  0.74867983    -0.11300
C2018       C  0.00337826  0.62312493  0.73448846    -0.12800
C2019       C  0.60838379  0.87876607  0.85924099    -0.11300
C2020       C  0.62373821  0.85675862  0.85766503    -0.12800
C2021       C  0.50256072  0.99944170  0.98554872    -0.11300
C2022       C  0.99569896  0.51382103  0.01356655    -0.12800
C2023       C  0.99288144  0.00135615  0.74525816    -0.11300
C2024       C  0.99473295  0.00107469  0.78058800    -0.12800
C2025       C  0.00964698  0.60861660  0.91082572    -0.11300
C2026       C  0.02016585  0.58581436  0.89933772    -0.12800
C2027       C  0.62359290  0.91189312  0.65256629    -0.11300
C2028       C  0.60865899  0.88956019  0.65332988    -0.12800
C2029       C  0.74050029  0.01153057  0.51705288    -0.11300
C2030       C  0.75678429  0.50706378  0.49590086    -0.12800
C2031       C  0.60083579  0.02161919  0.59416722    -0.11300
C2032       C  0.58810568  0.50714517  0.61659585    -0.12800
C2033       C  0.61956186  0.01257080  0.77983186    -0.11300
C2034       C  0.64095867  0.02295046  0.76642146    -0.12800
C2035       C  0.73332006  0.58431308  0.61289854    -0.11300
C2036       C  0.74282268  0.60783134  0.60253742    -0.12800
C2037       C  0.87796725  0.61929034  0.86011568    -0.11300
C2038       C  0.89974932  0.63502244  0.86014541    -0.12800
C2039       C  0.75389971  0.50007464  0.02113508    -0.11300
C2040       C  0.76615858  0.50994965  0.99306952    -0.12800
C2041       C  0.67418513  0.52605609  0.90795202    -0.11300
C2042       C  0.63850145  0.99284648  0.91113467    -0.12800
C2043       C  0.73392056  0.64054720  0.76159100    -0.11300
C2044       C  0.74366669  0.61877188  0.77471250    -0.12800
C2045       C  0.76454525  0.64773856  0.90878176    -0.11300
C2046       C  0.75002386  0.66908653  0.90063621    -0.12800
C2047       C  0.75126970  0.00505717  0.77181525    -0.11300
C2048       C  0.75071686  0.00562430  0.73631082    -0.12800
loop_ 
_geom_bond_atom_site_label_1 
_geom_bond_atom_site_label_2 
_geom_bond_distance 
_geom_bond_site_symmetry_2 
_ccdc_geom_bond_type 
O1           Ni7   1.877       .  S
O1           C22   1.259       .  A
O2          Ni25   1.889       .  S
O2           C11   1.277       .  A
O3           Ni7   1.889       .  S
O3          Ni25   1.860       .  S
O3          Ni19   1.970       .  S
O3           H26   0.964       .  S
C4           O21   1.288       .  A
C4           O13   1.289       .  A
C4          C501   1.472       .  S
O5          Ni24   1.964       .  S
O5           C11   1.286       .  A
O6          Ni24   1.943       .  S
O6            C8   1.271       .  A
Ni7          O10   1.926       .  S
Ni7          O12   1.902       .  S
C8           O18   1.259       .  A
C8          C509   1.445       .  S
O9          Ni25   1.952       .  S
O9           C15   1.280       .  A
O10          C15   1.277       .  A
C11         C504   1.448       .  S
O12          C14   1.261       .  A
O13         Ni24   1.971       .  S
C14          O20   1.296       .  A
C14        C1023   1.483   1_545  S
C15         C505   1.454       .  S
H16          O17   0.966       .  S
O17         Ni25   1.920       .  S
O17         Ni19   1.883       .  S
O17         Ni24   1.899       .  S
O18         Ni19   1.913       .  S
Ni19         O23   1.889       .  S
Ni19         O21   1.941       .  S
O20         Ni25   2.012       .  S
C22          O23   1.259       .  A
C22         C508   1.400       .  S
O27        Ni545   1.916       .  S
O27          C48   1.268       .  A
O28         Ni51   1.897       .  S
O28          C37   1.282       .  A
O29         Ni51   1.876       .  S
O29         Ni45   1.928       .  S
O29        Ni545   1.897       .  S
O29         H564   0.965       .  S
C30          O47   1.291       .  A
C30          O39   1.286       .  A
C30         C491   1.472       .  S
O31         Ni50   1.949       .  S
O31          C37   1.283       .  A
O32         Ni50   1.935       .  S
O32          C34   1.270       .  A
Ni33         O36   1.924       .  S
Ni33        O539   1.875       .  S
Ni33        O550   1.902       .  S
Ni33        O541   1.892       .  S
C34          O44   1.257       .  A
C34         C495   1.434       .  S
O35        Ni563   1.946   1_545  S
O35          C41   1.278       .  A
O36          C41   1.276       .  A
C37         C493   1.447       .  S
O38        Ni545   1.907       .  S
O38          C40   1.264       .  A
O39         Ni50   1.956       .  S
C40          O46   1.298       .  A
C40         C512   1.483       .  S
C41         C499   1.451       .  S
H42          O43   0.967       .  S
O43         Ni51   1.907       .  S
O43         Ni45   1.868       .  S
O43         Ni50   1.895       .  S
O44         Ni45   1.893       .  S
Ni45         O49   1.862       .  S
Ni45         O47   1.955       .  S
O46         Ni51   2.009       .  S
C48          O49   1.265       .  A
C48         C498   1.394       .  S
Ni51        O547   1.940       .  S
H52         O541   0.966       .  S
O53        Ni571   1.876       .  S
O53          C74   1.259       .  A
O54         Ni77   1.898       .  S
O54          C63   1.282       .  A
O55         Ni59   1.894       .  S
O55        Ni589   1.875       .  S
O55        Ni583   1.939   1_545  S
O55          H78   0.966       .  S
C56          O73   1.284       .  A
C56          O65   1.290       .  A
C56         C483   1.472       .  S
O57         Ni76   1.957       .  S
O57          C63   1.283       .  A
O58         Ni76   1.939       .  S
O58          C60   1.268       .  A
Ni59         O62   1.925       .  S
Ni59        O565   1.914       .  S
Ni59        O576   1.910       .  S
C60          O70   1.259       .  A
C60         C506   1.444       .  S
O61        Ni589   1.943       .  S
O61          C67   1.274       .  A
O62          C67   1.271       .  A
C63         C485   1.454       .  S
O64        Ni571   1.903       .  S
O64          C66   1.264       .  A
O65         Ni76   1.978       .  S
C66          O72   1.303       .  A
C66        C1512   1.493   1_455  S
C67        C1514   1.452       .  S
H68          O69   0.966       .  S
O69         Ni77   1.923       .  S
O69         Ni71   1.883       .  S
O69         Ni76   1.905       .  S
O70         Ni71   1.916       .  S
Ni71         O75   1.887       .  S
Ni71         O73   1.932       .  S
Ni71        O567   1.972       .  S
O72         Ni77   2.026       .  S
C74          O75   1.255       .  A
C74         C497   1.403       .  S
Ni77        O573   1.939       .  S
Ni77        O567   1.860       .  S
O79       Ni1109   1.878       .  S
O79         C100   1.259       .  A
O80        Ni103   1.902       .  S
O80          C89   1.283       .  A
O81        Ni103   1.863       .  S
O81         Ni97   1.959       .  S
O81       Ni1109   1.888       .  S
O81        H1128   0.962       .  S
C82          O99   1.282       .  A
C82          O91   1.292       .  A
C82         C476   1.469       .  S
O83        Ni102   1.971       .  S
O83          C89   1.286       .  A
O84        Ni102   1.937       .  S
O84          C86   1.268       .  A
Ni85         O88   1.924       .  S
Ni85       O1103   1.912       .  S
Ni85       O1114   1.905       .  S
Ni85       O1105   1.893       .  S
C86          O96   1.259       .  A
C86         C479   1.441       .  S
O87       Ni1127   1.944       .  S
O87          C93   1.276       .  A
O88          C93   1.274       .  A
C89         C478   1.466       .  S
O90       Ni1109   1.900       .  S
O90          C92   1.260       .  A
O91        Ni102   1.983       .  S
C92          O98   1.301       .  A
C92         C999   1.492   1_545  S
C93         C496   1.450       .  S
H94          O95   0.966       .  S
O95        Ni103   1.918       .  S
O95         Ni97   1.891       .  S
O95        Ni102   1.903       .  S
O96         Ni97   1.916       .  S
Ni97        O101   1.892       .  S
Ni97         O99   1.925       .  S
O98        Ni103   2.025       .  S
C100        O101   1.259       .  A
C100        C482   1.406       .  S
Ni103      O1111   1.936       .  S
H104       O1105   0.966       .  S
O105       Ni111   1.913       .  S
O105        C126   1.268       .  A
O106       Ni129   1.889       .  S
O106        C115   1.278       .  A
O107       Ni111   1.895       .  S
O107       Ni129   1.878       .  S
O107       Ni123   1.936       .  S
O107        H130   0.965       .  S
C108        O125   1.295       .  A
C108        O117   1.284       .  A
C108        C484   1.470       .  S
O109       Ni128   1.944       .  S
O109        C115   1.282       .  A
O110       Ni128   1.939       .  S
O110        C112   1.271       .  A
Ni111       O114   1.924       .  S
Ni111       O116   1.910       .  S
C112        O122   1.257       .  A
C112        C472   1.438       .  S
O113       Ni129   1.940       .  S
O113        C119   1.273       .  A
O114        C119   1.271       .  A
C115        C468   1.434       .  S
O116        C118   1.268       .  A
O117       Ni128   1.946       .  S
C118        O124   1.295       .  A
C118        C473   1.474       .  S
C119        C510   1.449       .  S
H120        O121   0.967       .  S
O121       Ni129   1.903       .  S
O121       Ni123   1.864       .  S
O121       Ni128   1.890       .  S
O122       Ni123   1.896       .  S
Ni123       O127   1.865       .  S
Ni123       O125   1.962       .  S
O124       Ni129   1.995       .  S
C126        O127   1.268       .  A
C126        C470   1.396       .  S
O131       Ni137   1.905       .  S
O131        C152   1.264       .  A
O132       Ni155   1.890       .  S
O132        C141   1.279       .  A
O133       Ni137   1.910       .  S
O133       Ni155   1.894       .  S
O133       Ni149   1.958       .  S
O133        H156   0.965       .  S
C134        O151   1.295       .  A
C134        O143   1.282       .  A
C134        C475   1.466       .  S
O135       Ni154   1.946       .  S
O135        C141   1.283       .  A
O136       Ni154   1.946       .  S
O136        C138   1.273       .  A
Ni137       O140   1.917       .  S
Ni137       O142   1.897       .  S
C138        O148   1.255       .  A
C138        C500   1.442       .  S
O139       Ni155   1.921       .  S
O139        C145   1.262       .  A
O140        C145   1.263       .  A
C141        C463   1.437       .  S
O142        C144   1.272       .  A
O143       Ni154   1.942       .  S
C144        O150   1.304       .  A
C144        C474   1.470       .  S
C145        C466   1.447       .  S
H146        O147   0.967       .  S
O147       Ni155   1.895       .  S
O147       Ni149   1.854       .  S
O147       Ni154   1.893       .  S
O148       Ni149   1.891       .  S
Ni149       O153   1.856       .  S
Ni149       O151   1.960       .  S
O150       Ni155   2.003       .  S
C152        O153   1.261       .  A
C152        C507   1.392       .  S
O157      Ni1187   1.924       .  S
O157        C178   1.272       .  A
O158       Ni181   1.894       .  S
O158        C167   1.283       .  A
O159       Ni181   1.880       .  S
O159       Ni175   1.938       .  S
O159      Ni1187   1.896       .  S
O159       H1206   0.966       .  S
C160        O177   1.293       .  A
C160        O169   1.288       .  A
C160        C502   1.471       .  S
O161       Ni180   1.955       .  S
O161        C167   1.286       .  A
O162       Ni180   1.952       .  S
O162        C164   1.273       .  A
Ni163       O166   1.918       .  S
Ni163      O1181   1.869   1_455  S
Ni163      O1192   1.902       .  S
Ni163      O1183   1.891   1_455  S
C164        O174   1.252       .  A
C164        C489   1.443       .  S
O165      Ni1205   1.942   1_455  S
O165        C171   1.277       .  A
O166        C171   1.275       .  A
C167        C459   1.448       .  S
O168      Ni1187   1.911       .  S
O168        C170   1.269       .  A
O169       Ni180   1.959       .  S
C170        O176   1.302       .  A
C170        C461   1.483       .  S
C171        C471   1.445       .  S
H172        O173   0.967       .  S
O173       Ni181   1.899       .  S
O173       Ni175   1.860       .  S
O173       Ni180   1.890       .  S
O174       Ni175   1.887       .  S
Ni175       O179   1.853       .  S
Ni175       O177   1.952       .  S
O176       Ni181   2.007       .  S
C178        O179   1.262       .  A
C178        C481   1.397       .  S
Ni181      O1189   1.927       .  S
H182       O1183   0.962   1_455  S
O183       Ni189   1.870       .  S
O183        C204   1.258       .  A
O184       Ni207   1.895       .  S
O184        C193   1.279       .  A
O185       Ni189   1.895       .  S
O185       Ni207   1.863       .  S
O185       Ni201   1.983       .  S
O185        H208   0.963       .  S
C186        O203   1.287       .  A
C186        O195   1.286       .  A
C186        C492   1.472       .  S
O187       Ni206   1.953       .  S
O187        C193   1.283       .  A
O188       Ni206   1.940       .  S
O188        C190   1.270       .  A
Ni189       O192   1.922       .  S
Ni189       O194   1.900       .  S
C190        O200   1.259       .  A
C190        C465   1.442       .  S
O191       Ni207   1.962       .  S
O191        C197   1.283       .  A
O192        C197   1.275       .  A
C193        C457   1.444       .  S
O194       C1220   1.262       .  A
O195       Ni206   1.967       .  S
C196       O1218   1.266       .  A
C196       O1226   1.300       .  A
C196        C462   1.483       .  S
C197       C1504   1.458       .  S
H198        O199   0.965       .  S
O199       Ni207   1.927       .  S
O199       Ni201   1.883       .  S
O199       Ni206   1.901       .  S
O200       Ni201   1.912       .  S
Ni201       O205   1.891       .  S
Ni201       O203   1.942       .  S
O202       Ni207   2.010       .  S
O202       C1220   1.298       .  A
C204        O205   1.255       .  A
C204        C469   1.406       .  S
O209       Ni215   1.950       .  S
O209        C230   1.285       .  A
O210       Ni233   1.863       .  S
O210        C219   1.268       .  A
O211       Ni215   1.892       .  S
O211       Ni233   1.863       .  S
O211       Ni227   1.911       .  S
O211        H234   0.968       .  S
C212        O229   1.277       .  A
C212        O221   1.274       .  A
C212        C449   1.456       .  S
O213       Ni232   1.913       .  S
O213        C219   1.268       .  A
O214       Ni232   1.905       .  S
O214        C216   1.262       .  A
Ni215       O218   1.947       .  S
Ni215       O220   1.954       .  S
C216        O226   1.298       .  A
C216        C455   1.481       .  S
O217       Ni233   1.971       .  S
O217        C223   1.298       .  A
O218        C223   1.284       .  A
C219        C454   1.394       .  S
O220        C222   1.276       .  A
O221       Ni232   1.928       .  S
C222        O228   1.257       .  A
C222        C451   1.456       .  S
C223        C447   1.477       .  S
H224        O225   0.966       .  S
O225       Ni233   1.941       .  S
O225       Ni227   1.870       .  S
O225       Ni232   1.894       .  S
O226       Ni227   2.012       .  S
Ni227       O231   1.891       .  S
Ni227       O229   1.950       .  S
O228       Ni233   1.902       .  S
C230        O231   1.281       .  A
C230        C464   1.437       .  S
O235       Ni241   1.946       .  S
O235        C256   1.283       .  A
O236       Ni259   1.863       .  S
O236        C245   1.266       .  A
O237       Ni241   1.892       .  S
O237       Ni259   1.861       .  S
O237       Ni253   1.903       .  S
O237        H260   0.968       .  S
C238        O255   1.272       .  A
C238        O247   1.272       .  A
C238        C445   1.449       .  S
O239       Ni258   1.912       .  S
O239        C245   1.268       .  A
O240       Ni258   1.909       .  S
O240        C242   1.266       .  A
Ni241       O244   1.945       .  S
Ni241       O246   1.951       .  S
C242        O252   1.299       .  A
C242        C456   1.482       .  S
O243       Ni259   1.962       .  S
O243        C249   1.296       .  A
O244        C249   1.284       .  A
C245        C443   1.393       .  S
O246        C248   1.273       .  A
O247       Ni258   1.926       .  S
C248        O254   1.254       .  A
C248        C441   1.446       .  S
C249        C440   1.468       .  S
H250        O251   0.966       .  S
O251       Ni259   1.938       .  S
O251       Ni253   1.874       .  S
O251       Ni258   1.892       .  S
O252       Ni253   2.008       .  S
Ni253       O257   1.889       .  S
Ni253       O255   1.937       .  S
O254       Ni259   1.893       .  S
C256        O257   1.280       .  A
C256        C467   1.434       .  S
O261       Ni267   1.955       .  S
O261        C282   1.286       .  A
O262       Ni285   1.863       .  S
O262        C271   1.266   1_545  A
O263       Ni267   1.888       .  S
O263       Ni285   1.864       .  S
O263       Ni279   1.901       .  S
O263        H286   0.967       .  S
C264        O281   1.283       .  A
C264        O273   1.277       .  A
C264        C452   1.463       .  S
O265       Ni796   1.912       .  S
O265        C271   1.268       .  A
O266       Ni796   1.905       .  S
O266        C268   1.263   1_565  A
Ni267       O270   1.958       .  S
Ni267       O272   1.948       .  S
C268        O278   1.301       .  A
C268        C437   1.486       .  S
O269       Ni285   1.953       .  S
O269        C275   1.293       .  A
O270        C275   1.288       .  A
C271        C435   1.390       .  S
O272        C274   1.273       .  A
O273       Ni284   1.927       .  S
C274        O280   1.255       .  A
C274        C434   1.442   1_545  S
C275        C432   1.469       .  S
H276        O277   0.966       .  S
O277       Ni285   1.932   1_565  S
O277       Ni279   1.873   1_565  S
O277       Ni796   1.891       .  S
O278       Ni279   2.015       .  S
Ni279       O283   1.897       .  S
Ni279       O793   1.930   1_545  S
O280       Ni285   1.894       .  S
O281       Ni791   1.962       .  S
C282        O283   1.284       .  A
C282        C494   1.450       .  S
Ni284       O777   1.873       .  S
Ni284       O778   1.898       .  S
Ni284       O789   1.892       .  S
O287       Ni293   1.955       .  S
O287        C308   1.282       .  A
O288       Ni311   1.887       .  S
O288        C297   1.255       .  A
O289       Ni293   1.902       .  S
O289       Ni311   1.883       .  S
O289       Ni305   1.918       .  S
O289        H312   0.965       .  S
C290        O307   1.275       .  A
C290        O299   1.275       .  A
C290        C942   1.445       .  S
O291       Ni310   1.872       .  S
O291        C297   1.258       .  A
O292       Ni310   1.905       .  S
O292        C806   1.265       .  A
Ni293       O296   1.972       .  S
Ni293       O298   1.942       .  S
C294        O304   1.299   1_545  A
C294        O804   1.266   1_545  A
C294        C438   1.487       .  S
O295       Ni311   1.929       .  S
O295        C301   1.284       .  A
O296        C301   1.289       .  A
C297        C453   1.404       .  S
O298        C300   1.269       .  A
O299       Ni310   1.922       .  S
C300        O306   1.258       .  A
C300        C446   1.443       .  S
C301        C427   1.467       .  S
H302        O303   0.963       .  S
O303       Ni311   1.970       .  S
O303       Ni305   1.864       .  S
O303       Ni310   1.890       .  S
O304       Ni817   2.011       .  S
Ni305       O309   1.894       .  S
Ni305       O307   1.938       .  S
Ni305       O816   2.011       .  S
O306       Ni311   1.914       .  S
C308        O309   1.279       .  A
C308       C1015   1.447       .  S
O313       Ni319   1.946       .  S
O313        C334   1.282       .  A
O314       Ni337   1.866       .  S
O314        C323   1.267   1_455  A
O315       Ni319   1.891       .  S
O315       Ni337   1.868       .  S
O315       Ni331   1.905   1_455  S
O315        H338   0.968       .  S
C316        O333   1.280       .  A
C316        O325   1.277       .  A
C316        C442   1.455       .  S
O317      Ni1360   1.912       .  S
O317        C323   1.267       .  A
O318      Ni1360   1.906       .  S
O318        C320   1.264       .  A
Ni319       O322   1.950       .  S
Ni319       O324   1.935       .  S
C320        O330   1.298   1_655  A
C320        C425   1.482   1_655  S
O321       Ni337   1.954       .  S
O321        C327   1.292       .  A
O322        C327   1.285       .  A
C323        C424   1.392       .  S
O324        C326   1.270       .  A
O325       Ni336   1.926       .  S
C326        O332   1.258       .  A
C326        C421   1.436   1_455  S
C327        C428   1.466       .  S
H328       O1353   0.965       .  S
O329       Ni337   1.930   1_655  S
O329       Ni331   1.876       .  S
O329      Ni1360   1.894       .  S
O329       H1352   0.965       .  S
O330       Ni331   2.009   1_455  S
Ni331       O335   1.898   1_655  S
Ni331      O1357   1.936       .  S
O332       Ni337   1.898       .  S
O333      Ni1355   1.951       .  S
C334        O335   1.283       .  A
C334        C460   1.447   1_455  S
Ni336      O1341   1.878       .  S
Ni336      O1342   1.901       .  S
Ni336      O1353   1.890       .  S
O339       Ni345   1.959       .  S
O339        C360   1.285       .  A
O340       Ni363   1.885       .  S
O340        C349   1.258       .  A
O341       Ni345   1.899       .  S
O341       Ni363   1.880       .  S
O341       Ni357   1.915       .  S
O341        H364   0.966       .  S
C342        O359   1.277       .  A
C342        O351   1.276       .  A
C342       C1443   1.449       .  S
O343       Ni362   1.876       .  S
O343        C349   1.260       .  A
O344       Ni362   1.905       .  S
O344        C346   1.263       .  A
Ni345       O348   1.971       .  S
Ni345       O350   1.951       .  S
C346        O356   1.298       .  A
C346       C1450   1.485       .  S
O347       Ni363   1.937       .  S
O347        C353   1.287       .  A
O348        C353   1.289       .  A
C349        C444   1.401       .  S
O350        C352   1.272       .  A
O351       Ni362   1.924       .  S
C352        O358   1.256       .  A
C352        C450   1.450       .  S
C353        C431   1.470       .  S
H354        O355   0.965       .  S
O355       Ni363   1.967       .  S
O355       Ni357   1.862       .  S
O355       Ni362   1.888       .  S
O356       Ni357   2.013       .  S
Ni357       O361   1.890       .  S
Ni357       O359   1.944       .  S
O358       Ni363   1.910       .  S
C360        O361   1.278       .  A
C360        C458   1.445       .  S
O365       Ni371   1.973       .  S
O365        C386   1.287       .  A
O366       Ni389   1.884       .  S
O366        C375   1.255       .  A
O367       Ni371   1.904       .  S
O367       Ni389   1.887       .  S
O367       Ni383   1.925       .  S
O367        H390   0.965       .  S
C368        O385   1.270       .  A
C368        O377   1.269       .  A
C368        C945   1.452       .  S
O369      Ni1412   1.876   1_455  S
O369        C375   1.259       .  A
O370      Ni1412   1.903       .  S
O370        C884   1.264   1_655  A
Ni371       O374   1.993       .  S
Ni371       O376   1.944       .  S
C372        O382   1.300   1_655  A
C372        O882   1.269       .  A
C372        C418   1.474   1_665  S
O373       Ni389   1.931       .  S
O373        C379   1.284       .  A
O374        C379   1.294       .  A
C375        C423   1.400   1_455  S
O376        C378   1.269       .  A
O377       Ni388   1.926       .  S
C378        O384   1.256       .  A
C378        C420   1.442       .  S
C379        C448   1.480       .  S
H380       O1405   0.965       .  S
O381       Ni389   1.971       .  S
O381       Ni383   1.860       .  S
O381      Ni1412   1.885   1_455  S
O381       H1404   0.965   1_455  S
O382       Ni895   2.001   1_455  S
Ni383       O387   1.898       .  S
Ni383       O894   2.017       .  S
Ni383      O1409   1.939   1_455  S
O384       Ni389   1.912       .  S
O385      Ni1407   1.936       .  S
C386        O387   1.281       .  A
C386        C989   1.465       .  S
Ni388      O1393   1.919       .  S
Ni388      O1394   1.907       .  S
Ni388      O1405   1.900       .  S
O391       Ni397   1.958       .  S
O391        C412   1.283       .  A
O392       Ni415   1.879       .  S
O392        C401   1.256       .  A
O393       Ni397   1.903       .  S
O393       Ni415   1.884       .  S
O393       Ni409   1.917       .  S
O393        H416   0.965       .  S
C394        O411   1.273       .  A
C394        O403   1.272       .  A
C394       C1446   1.446       .  S
O395       Ni926   1.879   1_545  S
O395        C401   1.260       .  A
O396       Ni926   1.905       .  S
O396        C398   1.265   1_565  A
Ni397       O400   1.985       .  S
Ni397       O402   1.947       .  S
C398        O408   1.300       .  A
C398       C1441   1.486       .  S
O399       Ni415   1.926       .  S
O399        C405   1.283       .  A
O400        C405   1.293       .  A
C401        C436   1.398       .  S
O402        C404   1.267       .  A
O403       Ni414   1.923       .  S
C404        O410   1.251       .  A
C404        C429   1.439       .  S
C405        C439   1.470       .  S
H406        O407   0.964       .  S
O407       Ni415   1.960       .  S
O407       Ni409   1.867       .  S
O407       Ni926   1.888   1_545  S
O408       Ni409   2.014       .  S
Ni409       O413   1.898       .  S
Ni409       O923   1.936   1_545  S
O410       Ni415   1.904       .  S
O411       Ni921   1.939       .  S
C412        O413   1.282       .  A
C412        C486   1.454       .  S
Ni414       O907   1.913       .  S
Ni414       O908   1.909       .  S
Ni414       O919   1.894       .  S
C417       C1422   1.476   1_445  S
C417        C418   1.233       .  T
C419       C1366   1.448       .  S
C419        C420   1.213   1_655  T
C421        C422   1.209       .  T
C422       C1418   1.442       .  S
C423        C424   1.181       .  T
C425        C426   1.237       .  T
C426       C1370   1.481   1_455  S
C427        C428   1.225       .  T
C429        C430   1.212       .  T
C430        C802   1.448   1_545  S
C431        C432   1.227       .  T
C433        C880   1.450       .  S
C433        C434   1.214       .  T
C435        C436   1.181   1_565  T
C437        C438   1.240       .  T
C439        C440   1.227       .  T
C441        C442   1.216       .  T
C443        C444   1.183       .  T
C445        C446   1.213       .  T
C447        C448   1.232       .  T
C449        C450   1.218       .  T
C451        C452   1.222       .  T
C453        C454   1.183       .  T
C455        C456   1.237       .  T
C457       C1482   1.212   1_455  T
C458       C1481   1.212       .  T
C459       C1484   1.214   1_556  T
C460       C1483   1.214   1_554  T
C461        C462   1.238       .  T
C463        C464   1.208       .  T
C465        C466   1.212       .  T
C467        C468   1.206   1_554  T
C469        C470   1.184       .  T
C471        C472   1.211       .  T
C473        C474   1.232       .  T
C475        C476   1.226       .  T
C477        C898   1.434   1_545  S
C477       C1502   1.206   1_455  T
C478       C1501   1.224       .  T
C479        C480   1.212       .  T
C480       C1221   1.446       .  S
C481        C482   1.187       .  T
C483        C484   1.228       .  T
C485       C2022   1.218   1_456  T
C486       C2021   1.218   1_544  T
C487        C604   1.477       .  S
C487        C488   1.234       .  T
C488       C1090   1.477       .  S
C489        C490   1.216       .  T
C490       C1091   1.453       .  S
C491        C492   1.228       .  T
C493       C1006   1.214       .  T
C494       C1005   1.216   1_545  T
C495       C1008   1.208       .  T
C496       C1007   1.214   1_545  T
C497        C498   1.183       .  T
C499        C500   1.214       .  T
C501        C502   1.228       .  T
C503        C820   1.448   1_545  S
C503        C504   1.214   1_554  T
C505       C1018   1.216       .  T
C506       C1017   1.213       .  T
C507        C508   1.182       .  T
C509        C510   1.214       .  T
C511        C526   1.484       .  S
C511        C512   1.238       .  T
O513       Ni519   1.916       .  S
O513        C534   1.268       .  A
O514       Ni537   1.898       .  S
O514        C523   1.283       .  A
O515       Ni519   1.894       .  S
O515       Ni537   1.875       .  S
O515       Ni531   1.930       .  S
O515        H538   0.965       .  S
C516        O533   1.293       .  A
C516        O525   1.283       .  A
C516       C1013   1.466       .  S
O517       Ni536   1.944       .  S
O517        C523   1.282       .  A
O518       Ni536   1.939       .  S
O518        C520   1.271       .  A
Ni519       O522   1.924       .  S
Ni519       O524   1.907       .  S
C520        O530   1.257       .  A
C520       C1021   1.438       .  S
O521       Ni537   1.940       .  S
O521        C527   1.274       .  A
O522        C527   1.272       .  A
C523       C1016   1.445       .  S
O524        C526   1.264       .  A
O525       Ni536   1.945       .  S
C526        O532   1.299       .  A
C527       C1017   1.448       .  S
H528        O529   0.968       .  S
O529       Ni537   1.907       .  S
O529       Ni531   1.868       .  S
O529       Ni536   1.893       .  S
O530       Ni531   1.895       .  S
Ni531       O535   1.864       .  S
Ni531       O533   1.958       .  S
O532       Ni537   2.010       .  S
C534        O535   1.267       .  A
C534       C1020   1.394       .  S
O539        C560   1.259   1_545  A
O540       Ni563   1.895       .  S
O540        C549   1.280       .  A
O541       Ni563   1.863   1_545  S
O541       Ni557   1.972   1_545  S
C542        O559   1.288       .  A
C542        O551   1.289       .  A
C542       C1003   1.472       .  S
O543       Ni562   1.960       .  S
O543        C549   1.284       .  A
O544       Ni562   1.945       .  S
O544        C546   1.271       .  A
Ni545       O548   1.924       .  S
C546        O556   1.257       .  A
C546       C1007   1.444       .  S
O547        C553   1.274       .  A
O548        C553   1.273       .  A
C549       C1005   1.451       .  S
O550        C552   1.262       .  A
O551       Ni562   1.970       .  S
C552        O558   1.298   1_545  A
C552       C1024   1.483   1_545  S
C553       C1011   1.449       .  S
H554        O555   0.966       .  S
O555       Ni563   1.919       .  S
O555       Ni557   1.883       .  S
O555       Ni562   1.900       .  S
O556       Ni557   1.908       .  S
Ni557       O561   1.889       .  S
Ni557       O559   1.941       .  S
O558       Ni563   2.014       .  S
C560        O561   1.258       .  A
C560       C1010   1.404   1_565  S
O565        C586   1.269       .  A
O566       Ni589   1.888   1_565  S
O566        C575   1.278       .  A
O567       Ni571   1.889       .  S
O567        H590   0.963       .  S
C568        O585   1.296       .  A
C568        O577   1.283       .  A
C568        C995   1.471       .  S
O569       Ni588   1.941       .  S
O569        C575   1.282       .  A
O570       Ni588   1.949       .  S
O570        C572   1.273   1_565  A
Ni571       O574   1.932       .  S
C572        O582   1.254   1_545  A
C572       C1018   1.445       .  S
O573        C579   1.275       .  A
O574        C579   1.278       .  A
C575        C997   1.429   1_565  S
O576        C578   1.267       .  A
O577       Ni588   1.943       .  S
C578        O584   1.297   1_545  A
C578       C2024   1.477   1_455  S
C579       C2026   1.453       .  S
H580        O581   0.968       .  S
O581       Ni589   1.907   1_565  S
O581       Ni583   1.862       .  S
O581       Ni588   1.895       .  S
O582       Ni583   1.892       .  S
Ni583       O587   1.862   1_565  S
Ni583       O585   1.966       .  S
O584       Ni589   2.001   1_565  S
C586        O587   1.266       .  A
C586       C1009   1.395       .  S
O591      Ni1621   1.912       .  S
O591        C612   1.268       .  A
O592       Ni615   1.893       .  S
O592        C601   1.281       .  A
O593      Ni1621   1.893       .  S
O593       Ni615   1.872       .  S
O593       Ni609   1.937       .  S
O593       H1640   0.966       .  S
C594        O611   1.298       .  A
C594        O603   1.282       .  A
C594        C988   1.473       .  S
O595       Ni614   1.941       .  S
O595        C601   1.281       .  A
O596       Ni614   1.947       .  S
O596        C598   1.273       .  A
Ni597      O1615   1.878   1_455  S
Ni597       O600   1.920       .  S
Ni597      O1626   1.900       .  S
Ni597      O1617   1.888   1_455  S
C598        O608   1.259       .  A
C598        C991   1.453       .  S
O599      Ni1639   1.936   1_455  S
O599        C605   1.276       .  A
O600        C605   1.276       .  A
C601        C990   1.434       .  S
O602      Ni1621   1.905       .  S
O602        C604   1.262       .  A
O603       Ni614   1.942       .  S
C604        O610   1.297       .  A
C605       C1008   1.441       .  S
H606        O607   0.968       .  S
O607       Ni615   1.909       .  S
O607       Ni609   1.864       .  S
O607       Ni614   1.891       .  S
O608       Ni609   1.905       .  S
Ni609       O613   1.865       .  S
Ni609       O611   1.969       .  S
O610       Ni615   2.008       .  S
C612        O613   1.269       .  A
C612        C994   1.395       .  S
Ni615      O1623   1.944       .  S
H616       O1617   0.962   1_455  S
O617       Ni623   1.878       .  S
O617        C638   1.260       .  A
O618       Ni641   1.898       .  S
O618        C627   1.282       .  A
O619       Ni623   1.889       .  S
O619       Ni641   1.867       .  S
O619       Ni635   1.964       .  S
O619        H642   0.964       .  S
C620        O637   1.284       .  A
C620        O629   1.293       .  A
C620        C996   1.474       .  S
O621       Ni640   1.964       .  S
O621        C627   1.285       .  A
O622       Ni640   1.948       .  S
O622        C624   1.269       .  A
Ni623       O626   1.923       .  S
Ni623       O628   1.904       .  S
C624        O634   1.253       .  A
C624        C984   1.443       .  S
O625       Ni641   1.938       .  S
O625        C631   1.275       .  A
O626        C631   1.275       .  A
C627        C980   1.458       .  S
O628        C630   1.264       .  A
O629       Ni640   1.985       .  S
C630        O636   1.300       .  A
C630        C985   1.487       .  S
C631       C1022   1.445       .  S
H632        O633   0.965       .  S
O633       Ni641   1.918       .  S
O633       Ni635   1.885       .  S
O633       Ni640   1.903       .  S
O634       Ni635   1.906       .  S
Ni635       O639   1.883       .  S
Ni635       O637   1.930       .  S
O636       Ni641   2.016       .  S
C638        O639   1.256       .  A
C638        C982   1.400       .  S
O643       Ni649   1.875       .  S
O643        C664   1.259       .  A
O644       Ni667   1.902       .  S
O644        C653   1.282       .  A
O645       Ni649   1.887       .  S
O645       Ni667   1.864       .  S
O645       Ni661   1.969       .  S
O645        H668   0.964       .  S
C646        O663   1.282       .  A
C646        O655   1.294       .  A
C646        C987   1.475       .  S
O647       Ni666   1.970       .  S
O647        C653   1.286       .  A
O648       Ni666   1.944       .  S
O648        C650   1.268       .  A
Ni649       O652   1.929       .  S
Ni649       O654   1.903       .  S
C650        O660   1.257       .  A
C650       C1012   1.444       .  S
O651       Ni667   1.936       .  S
O651        C657   1.274       .  A
O652        C657   1.277       .  A
C653        C975   1.465       .  S
O654        C656   1.265       .  A
O655       Ni666   1.992       .  S
C656        O662   1.302       .  A
C656        C986   1.487       .  S
C657        C978   1.450       .  S
H658        O659   0.965       .  S
O659       Ni667   1.923       .  S
O659       Ni661   1.888       .  S
O659       Ni666   1.905       .  S
O660       Ni661   1.915       .  S
Ni661       O665   1.887       .  S
Ni661       O663   1.926       .  S
O662       Ni667   2.018       .  S
C664        O665   1.254       .  A
C664       C1019   1.404       .  S
O669      Ni1699   1.869       .  S
O669        C690   1.257       .  A
O670       Ni693   1.896       .  S
O670        C679   1.280       .  A
O671      Ni1699   1.891       .  S
O671       Ni693   1.863       .  S
O671       Ni687   1.971       .  S
O671       H1718   0.962       .  S
C672        O689   1.282       .  A
C672        O681   1.290       .  A
C672       C1014   1.468       .  S
O673       Ni692   1.958       .  S
O673        C679   1.283       .  A
O674       Ni692   1.942       .  S
O674        C676   1.270       .  A
Ni675      O1693   1.924       .  S
Ni675       O678   1.935       .  S
Ni675      O1704   1.911       .  S
Ni675      O1695   1.896       .  S
C676        O686   1.260       .  A
C676       C1001   1.447       .  S
O677      Ni1717   1.927       .  S
O677        C683   1.267       .  A
O678        C683   1.271       .  A
C679        C971   1.449       .  S
O680      Ni1699   1.902       .  S
O680        C682   1.264       .  A
O681       Ni692   1.977       .  S
C682        O688   1.299       .  A
C682        C973   1.481       .  S
C683        C983   1.451       .  S
H684        O685   0.965       .  S
O685       Ni693   1.921       .  S
O685       Ni687   1.884       .  S
O685       Ni692   1.902       .  S
O686       Ni687   1.919       .  S
Ni687       O691   1.887       .  S
Ni687       O689   1.926       .  S
O688       Ni693   2.011       .  S
C690        O691   1.253       .  A
C690        C993   1.405       .  S
Ni693      O1701   1.942       .  S
H694       O1695   0.966       .  S
O695       Ni701   1.914       .  S
O695        C716   1.269       .  A
O696       Ni719   1.891       .  S
O696        C705   1.282       .  A
O697       Ni701   1.893       .  S
O697       Ni719   1.875       .  S
O697       Ni713   1.937       .  S
O697        H720   0.966       .  S
C698        O715   1.294       .  A
C698        O707   1.288       .  A
C698       C1004   1.472       .  S
O699       Ni718   1.955       .  S
O699        C705   1.286       .  A
O700       Ni718   1.949       .  S
O700        C702   1.273       .  A
Ni701       O704   1.928       .  S
Ni701       O706   1.908       .  S
C702        O712   1.254       .  A
C702        C977   1.441       .  S
O703       Ni719   1.933       .  S
O703        C709   1.270       .  A
O704        C709   1.271       .  A
C705        C969   1.445       .  S
O706       C1732   1.266       .  A
O707       Ni718   1.960       .  S
C708       O1730   1.262       .  A
C708       O1738   1.298       .  A
C708        C974   1.480       .  S
C709       C2016   1.446       .  S
H710        O711   0.967       .  S
O711       Ni719   1.902       .  S
O711       Ni713   1.861       .  S
O711       Ni718   1.888       .  S
O712       Ni713   1.890       .  S
Ni713       O717   1.859       .  S
Ni713       O715   1.954       .  S
O714       Ni719   2.008       .  S
O714       C1732   1.300       .  A
C716        O717   1.265       .  A
C716        C981   1.392       .  S
O721       Ni727   1.967       .  S
O721        C742   1.286       .  A
O722       Ni745   1.889       .  S
O722        C731   1.254       .  A
O723       Ni727   1.905       .  S
O723       Ni745   1.890       .  S
O723       Ni739   1.921       .  S
O723        H746   0.966       .  S
C724        O741   1.276       .  A
C724        O733   1.276       .  A
C724        C961   1.445       .  S
O725       Ni744   1.874       .  S
O725        C731   1.258       .  A
O726       Ni744   1.898       .  S
O726        C728   1.261       .  A
Ni727       O730   1.985       .  S
Ni727       O732   1.935       .  S
C728        O738   1.302       .  A
C728        C967   1.488       .  S
O729       Ni745   1.921       .  S
O729        C735   1.280       .  A
O730        C735   1.292       .  A
C731        C966   1.404       .  S
O732        C734   1.267       .  A
O733       Ni744   1.923       .  S
C734        O740   1.258       .  A
C734        C963   1.438       .  S
C735        C959   1.467       .  S
H736        O737   0.961       .  S
O737       Ni745   1.968       .  S
O737       Ni739   1.864       .  S
O737       Ni744   1.890       .  S
O738       Ni739   2.022       .  S
Ni739       O743   1.906       .  S
Ni739       O741   1.938       .  S
O740       Ni745   1.916       .  S
C742        O743   1.283       .  A
C742        C976   1.465       .  S
O747       Ni753   1.963       .  S
O747        C768   1.284       .  A
O748       Ni771   1.892       .  S
O748        C757   1.256       .  A
O749       Ni753   1.904       .  S
O749       Ni771   1.887       .  S
O749       Ni765   1.922       .  S
O749        H772   0.966       .  S
C750        O767   1.275       .  A
C750        O759   1.276       .  A
C750        C957   1.449       .  S
O751       Ni770   1.874       .  S
O751        C757   1.259       .  A
O752       Ni770   1.903       .  S
O752        C754   1.264       .  A
Ni753       O756   1.978       .  S
Ni753       O758   1.938       .  S
C754        O764   1.302       .  A
C754        C968   1.489       .  S
O755       Ni771   1.935       .  S
O755        C761   1.285       .  A
O756        C761   1.290       .  A
C757        C955   1.407       .  S
O758        C760   1.268       .  A
O759       Ni770   1.928       .  S
C760        O766   1.258       .  A
C760        C953   1.441       .  S
C761        C952   1.473       .  S
H762        O763   0.962       .  S
O763       Ni771   1.975       .  S
O763       Ni765   1.861       .  S
O763       Ni770   1.890       .  S
O764       Ni765   2.021       .  S
Ni765       O769   1.898       .  S
Ni765       O767   1.939       .  S
O766       Ni771   1.915       .  S
C768        O769   1.281       .  A
C768        C979   1.458       .  S
O773       Ni779   1.958       .  S
O773        C794   1.284       .  A
O774       Ni797   1.888       .  S
O774        C783   1.254       .  A
O775       Ni779   1.904       .  S
O775       Ni797   1.884       .  S
O775       Ni791   1.931       .  S
O775        H798   0.965       .  S
C776        O793   1.270       .  A
C776        O785   1.272       .  A
C776        C964   1.443       .  S
O777        C783   1.258       .  A
O778        C780   1.262       .  A
Ni779       O782   1.978       .  S
Ni779       O784   1.944       .  S
C780        O790   1.300       .  A
C780        C949   1.482       .  S
O781       Ni797   1.943       .  S
O781        C787   1.286       .  A
O782        C787   1.289       .  A
C783        C947   1.403       .  S
O784        C786   1.271       .  A
O785       Ni796   1.926       .  S
C786        O792   1.258       .  A
C786        C946   1.447       .  S
C787        C944   1.479       .  S
H788        O789   0.962       .  S
O789       Ni797   1.984       .  S
O789       Ni791   1.861       .  S
O790       Ni791   2.016       .  S
Ni791       O795   1.895       .  S
O792       Ni797   1.914       .  S
C794        O795   1.280       .  A
C794       C1006   1.447       .  S
O799       Ni805   1.960       .  S
O799        C820   1.286       .  A
O800       Ni823   1.860       .  S
O800        C809   1.266       .  A
O801       Ni805   1.891       .  S
O801       Ni823   1.865       .  S
O801       Ni817   1.902       .  S
O801        H824   0.967       .  S
C802        O819   1.269       .  A
C802        O811   1.274       .  A
O803       Ni822   1.920       .  S
O803        C809   1.271       .  A
O804       Ni822   1.911       .  S
Ni805       O808   1.962       .  S
Ni805       O810   1.947       .  S
C806        O816   1.299       .  A
C806        C950   1.483       .  S
O807       Ni823   1.959       .  S
O807        C813   1.295       .  A
O808        C813   1.288       .  A
C809        C965   1.394       .  S
O810        C812   1.273       .  A
O811       Ni822   1.934       .  S
C812        O818   1.255       .  A
C812        C958   1.441       .  S
C813        C939   1.478       .  S
H814        O815   0.966       .  S
O815       Ni823   1.931       .  S
O815       Ni817   1.873       .  S
O815       Ni822   1.893       .  S
Ni817       O821   1.892       .  S
Ni817       O819   1.927       .  S
O818       Ni823   1.893       .  S
C820        O821   1.281       .  A
O825       Ni831   1.958       .  S
O825        C846   1.283       .  A
O826       Ni849   1.892       .  S
O826        C835   1.260       .  A
O827       Ni831   1.903       .  S
O827       Ni849   1.887       .  S
O827       Ni843   1.924       .  S
O827        H850   0.966       .  S
C828        O845   1.272       .  A
C828        O837   1.272       .  A
C828        C954   1.445       .  S
O829      Ni1872   1.878   1_455  S
O829        C835   1.260       .  A
O830      Ni1872   1.901       .  S
O830        C832   1.261   1_655  A
Ni831       O834   1.973       .  S
Ni831       O836   1.940       .  S
C832        O842   1.298       .  A
C832        C937   1.484       .  S
O833       Ni849   1.946       .  S
O833        C839   1.289       .  A
O834        C839   1.289       .  A
C835        C936   1.405   1_455  S
O836        C838   1.269       .  A
O837       Ni848   1.922       .  S
C838        O844   1.259       .  A
C838        C933   1.441       .  S
C839        C940   1.478       .  S
H840       O1865   0.965       .  S
O841       Ni849   1.973       .  S
O841       Ni843   1.861       .  S
O841      Ni1872   1.890   1_455  S
O841       H1864   0.965   1_455  S
O842       Ni843   2.015       .  S
Ni843       O847   1.894       .  S
Ni843      O1869   1.951   1_455  S
O844       Ni849   1.912       .  S
O845      Ni1867   1.936       .  S
C846        O847   1.279       .  A
C846        C972   1.448       .  S
Ni848      O1853   1.912       .  S
Ni848      O1854   1.906       .  S
Ni848      O1865   1.894       .  S
O851       Ni857   1.950       .  S
O851        C872   1.283       .  A
O852       Ni875   1.860       .  S
O852        C861   1.266       .  A
O853       Ni857   1.892       .  S
O853       Ni875   1.866       .  S
O853       Ni869   1.907       .  S
O853        H876   0.968       .  S
C854        O871   1.271       .  A
C854        O863   1.273       .  A
C854       C1955   1.448       .  S
O855       Ni874   1.919       .  S
O855        C861   1.270       .  A
O856       Ni874   1.908       .  S
O856        C858   1.265       .  A
Ni857       O860   1.959       .  S
Ni857       O862   1.940       .  S
C858        O868   1.299       .  A
C858       C1962   1.481       .  S
O859       Ni875   1.961       .  S
O859        C865   1.294       .  A
O860        C865   1.287       .  A
C861        C956   1.397       .  S
O862        C864   1.270       .  A
O863       Ni874   1.929       .  S
C864        O870   1.257       .  A
C864        C962   1.440       .  S
C865        C943   1.478       .  S
H866        O867   0.964       .  S
O867       Ni875   1.935       .  S
O867       Ni869   1.875       .  S
O867       Ni874   1.895       .  S
O868       Ni869   2.008       .  S
Ni869       O873   1.895       .  S
Ni869       O871   1.935       .  S
O870       Ni875   1.899       .  S
C872        O873   1.282       .  A
C872        C970   1.444       .  S
O877       Ni883   1.937       .  S
O877        C898   1.281       .  A
O878       Ni901   1.855       .  S
O878        C887   1.262   1_455  A
O879       Ni883   1.892       .  S
O879       Ni901   1.858       .  S
O879       Ni895   1.901   1_455  S
O879        H902   0.967       .  S
C880        O897   1.276       .  A
C880        O889   1.276       .  A
O881      Ni1924   1.919       .  S
O881        C887   1.269       .  A
O882      Ni1924   1.907       .  S
Ni883       O886   1.940       .  S
Ni883       O888   1.943       .  S
C884        O894   1.301       .  A
C884        C930   1.486       .  S
O885       Ni901   1.958       .  S
O885        C891   1.294       .  A
O886        C891   1.282       .  A
C887        C935   1.396       .  S
O888        C890   1.272       .  A
O889       Ni900   1.929       .  S
C890        O896   1.254       .  A
C890        C932   1.439   1_455  S
C891        C960   1.463       .  S
H892       O1917   0.965       .  S
O893       Ni901   1.942   1_655  S
O893       Ni895   1.884       .  S
O893      Ni1924   1.900       .  S
O893       H1916   0.965       .  S
Ni895       O899   1.895   1_655  S
Ni895      O1921   1.936       .  S
O896       Ni901   1.888       .  S
O897      Ni1919   1.939       .  S
C898        O899   1.282       .  A
Ni900      O1905   1.876       .  S
Ni900      O1906   1.903       .  S
Ni900      O1917   1.885       .  S
O903       Ni909   1.942       .  S
O903        C924   1.281       .  A
O904       Ni927   1.863       .  S
O904        C913   1.267       .  A
O905       Ni909   1.892       .  S
O905       Ni927   1.864       .  S
O905       Ni921   1.905       .  S
O905        H928   0.967       .  S
C906        O923   1.274       .  A
C906        O915   1.274       .  A
C906       C1958   1.442       .  S
O907        C913   1.268       .  A
O908        C910   1.266       .  A
Ni909       O912   1.947       .  S
Ni909       O914   1.940       .  S
C910        O920   1.295       .  A
C910       C1953   1.476       .  S
O911       Ni927   1.963       .  S
O911        C917   1.295       .  A
O912        C917   1.284       .  A
C913        C948   1.393       .  S
O914        C916   1.271       .  A
O915       Ni926   1.921       .  S
C916        O922   1.256       .  A
C916        C941   1.437       .  S
C917        C951   1.472       .  S
H918        O919   0.966       .  S
O919       Ni927   1.932       .  S
O919       Ni921   1.872       .  S
O920       Ni921   1.998       .  S
Ni921       O925   1.886       .  S
O922       Ni927   1.892       .  S
C924        O925   1.278       .  A
C924        C998   1.430       .  S
C929       C1934   1.486   1_455  S
C929        C930   1.240       .  T
C931       C1878   1.449       .  S
C931        C932   1.213       .  T
C933        C934   1.212   1_455  T
C934       C1930   1.446       .  S
C935        C936   1.186       .  T
C937        C938   1.239       .  T
C938       C1882   1.485   1_455  S
C939        C940   1.232       .  T
C941        C942   1.211       .  T
C943        C944   1.232       .  T
C945        C946   1.215       .  T
C947        C948   1.182       .  T
C949        C950   1.239       .  T
C951        C952   1.229       .  T
C953        C954   1.211       .  T
C955        C956   1.185       .  T
C957        C958   1.213       .  T
C959        C960   1.224       .  T
C961        C962   1.211       .  T
C963        C964   1.210       .  T
C965        C966   1.184       .  T
C967        C968   1.242       .  T
C969       C1994   1.212   1_455  T
C970       C1993   1.212       .  T
C971       C1996   1.214   1_556  T
C972       C1995   1.214   1_554  T
C973        C974   1.237       .  T
C975        C976   1.224       .  T
C977        C978   1.213       .  T
C979        C980   1.220   1_554  T
C981        C982   1.182       .  T
C983        C984   1.214       .  T
C985        C986   1.241       .  T
C987        C988   1.230       .  T
C989       C2014   1.224   1_455  T
C990       C2013   1.206       .  T
C991        C992   1.219       .  T
C992       C1733   1.458       .  S
C993        C994   1.183       .  T
C995        C996   1.229       .  T
C997       C1510   1.203   1_456  T
C998       C1509   1.203   1_554  T
C999       C1000   1.244       .  T
C1000      C1602   1.493   1_565  S
C1001      C1002   1.215       .  T
C1002      C1603   1.452       .  S
C1003      C1004   1.228       .  T
C1009      C1010   1.184       .  T
C1011      C1012   1.214       .  T
C1013      C1014   1.225       .  T
C1015      C1016   1.213   1_554  T
C1019      C1020   1.183       .  T
C1021      C1022   1.211       .  T
C1023      C1024   1.238       .  T
O1025     Ni1031   1.916       .  S
O1025      C1046   1.268       .  A
O1026     Ni1049   1.898       .  S
O1026      C1035   1.283       .  A
O1027     Ni1031   1.894       .  S
O1027     Ni1049   1.875       .  S
O1027     Ni1043   1.930       .  S
O1027      H1050   0.965       .  S
C1028      O1045   1.293       .  A
C1028      O1037   1.283       .  A
C1028      C1525   1.466       .  S
O1029     Ni1048   1.944       .  S
O1029      C1035   1.282       .  A
O1030     Ni1048   1.939       .  S
O1030      C1032   1.271       .  A
Ni1031     O1034   1.924       .  S
Ni1031     O1036   1.907       .  S
C1032      O1042   1.257       .  A
C1032      C1533   1.438       .  S
O1033     Ni1049   1.940       .  S
O1033      C1039   1.274       .  A
O1034      C1039   1.272       .  A
C1035      C1528   1.445       .  S
O1036      C1038   1.264       .  A
O1037     Ni1048   1.945       .  S
C1038      O1044   1.299       .  A
C1038      C2047   1.484       .  S
C1039      C1529   1.448       .  S
H1040      O1041   0.968       .  S
O1041     Ni1049   1.907       .  S
O1041     Ni1043   1.868       .  S
O1041     Ni1048   1.893       .  S
O1042     Ni1043   1.895       .  S
Ni1043     O1047   1.864       .  S
Ni1043     O1045   1.958       .  S
O1044     Ni1049   2.010       .  S
C1046      O1047   1.267       .  A
C1046      C1532   1.394       .  S
O1051     Ni1569   1.875       .  S
O1051      C1072   1.259       .  A
O1052     Ni1075   1.895       .  S
O1052      C1061   1.280       .  A
O1053     Ni1569   1.892       .  S
O1053     Ni1075   1.863       .  S
O1053     Ni1069   1.972       .  S
O1053      H1588   0.966       .  S
C1054      O1071   1.288       .  A
C1054      O1063   1.289       .  A
C1054      C1515   1.472       .  S
O1055     Ni1074   1.960       .  S
O1055      C1061   1.284       .  A
O1056     Ni1074   1.945       .  S
O1056      C1058   1.271       .  A
Ni1057     O1563   1.916       .  S
Ni1057     O1060   1.924       .  S
Ni1057     O1574   1.907       .  S
Ni1057     O1565   1.897       .  S
C1058      O1068   1.257       .  A
C1058      C1519   1.444       .  S
O1059     Ni1587   1.940       .  S
O1059      C1065   1.274       .  A
O1060      C1065   1.273       .  A
C1061      C1517   1.451       .  S
O1062     Ni1569   1.902       .  S
O1062      C1064   1.262       .  A
O1063     Ni1074   1.970       .  S
C1064      O1070   1.298       .  A
C1064      C1536   1.483       .  S
C1065      C1523   1.449       .  S
H1066      O1067   0.966       .  S
O1067     Ni1075   1.919       .  S
O1067     Ni1069   1.883       .  S
O1067     Ni1074   1.900       .  S
O1068     Ni1069   1.908       .  S
Ni1069     O1073   1.889       .  S
Ni1069     O1071   1.941       .  S
O1070     Ni1075   2.014       .  S
C1072      O1073   1.258       .  A
C1072      C1522   1.404       .  S
Ni1075     O1571   1.946       .  S
H1076      O1565   0.965       .  S
O1077     Ni1595   1.914       .  S
O1077      C1098   1.269       .  A
O1078     Ni1101   1.888       .  S
O1078      C1087   1.278       .  A
O1079     Ni1083   1.889       .  S
O1079     Ni1613   1.860   1_545  S
O1079     Ni1607   1.972   1_545  S
O1079      H1102   0.963       .  S
C1080      O1097   1.296       .  A
C1080      O1089   1.283       .  A
C1080      C1507   1.471       .  S
O1081     Ni1100   1.941       .  S
O1081      C1087   1.282       .  A
O1082     Ni1100   1.949       .  S
O1082      C1084   1.273       .  A
Ni1083     O1589   1.876       .  S
Ni1083     O1086   1.932       .  S
Ni1083     O1600   1.903       .  S
C1084      O1094   1.254       .  A
C1084      C1530   1.445       .  S
O1085     Ni1613   1.939   1_545  S
O1085      C1091   1.275       .  A
O1086      C1091   1.278       .  A
C1087      C1509   1.429       .  S
O1088     Ni1595   1.910       .  S
O1088      C1090   1.267       .  A
O1089     Ni1100   1.943       .  S
C1090      O1096   1.297       .  A
H1092      O1093   0.968       .  S
O1093     Ni1101   1.907       .  S
O1093     Ni1095   1.862       .  S
O1093     Ni1100   1.895       .  S
O1094     Ni1095   1.892       .  S
Ni1095     O1099   1.862       .  S
Ni1095     O1097   1.966       .  S
Ni1095     O1591   1.939       .  S
O1096     Ni1101   2.001       .  S
C1098      O1099   1.266       .  A
C1098      C1521   1.395       .  S
Ni1101     O1597   1.943       .  S
Ni1101     O1591   1.875       .  S
O1103      C1124   1.268       .  A
O1104     Ni1127   1.893   1_655  S
O1104      C1113   1.281       .  A
O1105     Ni1127   1.872       .  S
O1105     Ni1121   1.937   1_455  S
C1106      O1123   1.298       .  A
C1106      O1115   1.282       .  A
C1106      C1500   1.473       .  S
O1107     Ni1126   1.941       .  S
O1107      C1113   1.281       .  A
O1108     Ni1126   1.947       .  S
O1108      C1110   1.273       .  A
Ni1109     O1112   1.920       .  S
C1110      O1120   1.259       .  A
C1110      C1503   1.452   1_655  S
O1111      C1117   1.276       .  A
O1112      C1117   1.276       .  A
C1113      C1502   1.434       .  S
O1114      C1116   1.262       .  A
O1115     Ni1126   1.942       .  S
C1116      O1122   1.297   1_455  A
C1116      C2023   1.477   1_455  S
C1117      C1520   1.441       .  S
H1118      O1119   0.968       .  S
O1119     Ni1127   1.909   1_655  S
O1119     Ni1121   1.864       .  S
O1119     Ni1126   1.891       .  S
O1120     Ni1121   1.905       .  S
Ni1121     O1125   1.865       .  S
Ni1121     O1123   1.969       .  S
O1122     Ni1127   2.008   1_655  S
C1124      O1125   1.269   1_455  A
C1124      C1506   1.395       .  S
O1129     Ni1135   1.878       .  S
O1129      C1150   1.260       .  A
O1130     Ni1153   1.898       .  S
O1130      C1139   1.282       .  A
O1131     Ni1135   1.889       .  S
O1131     Ni1153   1.867       .  S
O1131     Ni1147   1.964       .  S
O1131      H1154   0.964       .  S
C1132      O1149   1.284       .  A
C1132      O1141   1.293       .  A
C1132      C1508   1.474       .  S
O1133     Ni1152   1.964       .  S
O1133      C1139   1.285       .  A
O1134     Ni1152   1.948       .  S
O1134      C1136   1.269       .  A
Ni1135     O1138   1.923       .  S
Ni1135     O1140   1.904       .  S
C1136      O1146   1.253       .  A
C1136      C1496   1.443       .  S
O1137     Ni1153   1.938       .  S
O1137      C1143   1.275       .  A
O1138      C1143   1.275       .  A
C1139      C1492   1.458       .  S
O1140      C1142   1.264       .  A
O1141     Ni1152   1.985       .  S
C1142      O1148   1.300       .  A
C1142      C1497   1.487       .  S
C1143      C1534   1.445       .  S
H1144      O1145   0.965       .  S
O1145     Ni1153   1.918       .  S
O1145     Ni1147   1.885       .  S
O1145     Ni1152   1.903       .  S
O1146     Ni1147   1.906       .  S
Ni1147     O1151   1.883       .  S
Ni1147     O1149   1.930       .  S
O1148     Ni1153   2.016       .  S
C1150      O1151   1.256       .  A
C1150      C1494   1.400       .  S
O1155     Ni1161   1.875       .  S
O1155      C1176   1.259       .  A
O1156     Ni1179   1.902       .  S
O1156      C1165   1.282       .  A
O1157     Ni1161   1.887       .  S
O1157     Ni1179   1.864       .  S
O1157     Ni1173   1.969       .  S
O1157      H1180   0.964       .  S
C1158      O1175   1.282       .  A
C1158      O1167   1.294       .  A
C1158      C1499   1.475       .  S
O1159     Ni1178   1.970       .  S
O1159      C1165   1.286       .  A
O1160     Ni1178   1.944       .  S
O1160      C1162   1.268       .  A
Ni1161     O1164   1.929       .  S
Ni1161     O1166   1.903       .  S
C1162      O1172   1.257       .  A
C1162      C1524   1.444       .  S
O1163     Ni1179   1.936       .  S
O1163      C1169   1.274       .  A
O1164      C1169   1.277       .  A
C1165      C1487   1.465       .  S
O1166      C1168   1.265       .  A
O1167     Ni1178   1.992       .  S
C1168      O1174   1.302       .  A
C1168      C1498   1.487       .  S
C1169      C1490   1.450       .  S
H1170      O1171   0.965       .  S
O1171     Ni1179   1.923       .  S
O1171     Ni1173   1.888       .  S
O1171     Ni1178   1.905       .  S
O1172     Ni1173   1.915       .  S
Ni1173     O1177   1.887       .  S
Ni1173     O1175   1.926       .  S
O1174     Ni1179   2.018       .  S
C1176      O1177   1.254       .  A
C1176      C1531   1.404       .  S
O1181      C1202   1.257       .  A
O1182     Ni1205   1.896       .  S
O1182      C1191   1.280       .  A
O1183     Ni1205   1.863       .  S
O1183     Ni1199   1.971       .  S
C1184      O1201   1.282       .  A
C1184      O1193   1.290       .  A
C1184      C1526   1.468       .  S
O1185     Ni1204   1.958       .  S
O1185      C1191   1.283       .  A
O1186     Ni1204   1.942       .  S
O1186      C1188   1.270       .  A
Ni1187     O1190   1.935       .  S
C1188      O1198   1.260       .  A
C1188      C1513   1.447       .  S
O1189      C1195   1.267       .  A
O1190      C1195   1.271       .  A
C1191      C1483   1.449       .  S
O1192      C1194   1.264   1_455  A
O1193     Ni1204   1.977       .  S
C1194      O1200   1.299       .  A
C1194      C1485   1.481       .  S
C1195      C1495   1.451       .  S
H1196      O1197   0.965       .  S
O1197     Ni1205   1.921       .  S
O1197     Ni1199   1.884       .  S
O1197     Ni1204   1.902       .  S
O1198     Ni1199   1.919       .  S
Ni1199     O1203   1.887       .  S
Ni1199     O1201   1.926       .  S
O1200     Ni1205   2.011       .  S
C1202      O1203   1.253       .  A
C1202      C1505   1.405   1_655  S
O1207     Ni1213   1.914       .  S
O1207      C1228   1.269       .  A
O1208     Ni1231   1.891       .  S
O1208      C1217   1.282       .  A
O1209     Ni1213   1.893       .  S
O1209     Ni1231   1.875       .  S
O1209     Ni1225   1.937       .  S
O1209      H1232   0.966       .  S
C1210      O1227   1.294       .  A
C1210      O1219   1.288       .  A
C1210      C1516   1.472       .  S
O1211     Ni1230   1.955       .  S
O1211      C1217   1.286       .  A
O1212     Ni1230   1.949       .  S
O1212      C1214   1.273       .  A
Ni1213     O1216   1.928       .  S
Ni1213     O1218   1.908       .  S
C1214      O1224   1.254       .  A
C1214      C1489   1.441       .  S
O1215     Ni1231   1.933       .  S
O1215      C1221   1.270       .  A
O1216      C1221   1.271       .  A
C1217      C1481   1.445       .  S
O1219     Ni1230   1.960       .  S
C1220      C1486   1.480   1_455  S
H1222      O1223   0.967       .  S
O1223     Ni1231   1.902       .  S
O1223     Ni1225   1.861       .  S
O1223     Ni1230   1.888       .  S
O1224     Ni1225   1.890       .  S
Ni1225     O1229   1.859       .  S
Ni1225     O1227   1.954       .  S
O1226     Ni1231   2.008       .  S
C1228      O1229   1.265       .  A
C1228      C1493   1.392       .  S
O1233     Ni1239   1.967       .  S
O1233      C1254   1.286       .  A
O1234     Ni1257   1.889       .  S
O1234      C1243   1.254       .  A
O1235     Ni1239   1.905       .  S
O1235     Ni1257   1.890       .  S
O1235     Ni1251   1.921       .  S
O1235      H1258   0.966       .  S
C1236      O1253   1.276       .  A
C1236      O1245   1.276       .  A
C1236      C1473   1.445       .  S
O1237     Ni1256   1.874       .  S
O1237      C1243   1.258       .  A
O1238     Ni1256   1.898       .  S
O1238      C1240   1.261       .  A
Ni1239     O1242   1.985       .  S
Ni1239     O1244   1.935       .  S
C1240      O1250   1.302       .  A
C1240      C1479   1.488       .  S
O1241     Ni1257   1.921       .  S
O1241      C1247   1.280       .  A
O1242      C1247   1.292       .  A
C1243      C1478   1.404       .  S
O1244      C1246   1.267       .  A
O1245     Ni1256   1.923       .  S
C1246      O1252   1.258       .  A
C1246      C1475   1.438       .  S
C1247      C1471   1.467       .  S
H1248      O1249   0.961       .  S
O1249     Ni1257   1.968       .  S
O1249     Ni1251   1.864       .  S
O1249     Ni1256   1.890       .  S
O1250     Ni1251   2.022       .  S
Ni1251     O1255   1.906       .  S
Ni1251     O1253   1.938       .  S
O1252     Ni1257   1.916       .  S
C1254      O1255   1.283       .  A
C1254      C1488   1.465       .  S
O1259     Ni1265   1.963       .  S
O1259      C1280   1.284       .  A
O1260     Ni1283   1.892       .  S
O1260      C1269   1.256       .  A
O1261     Ni1265   1.904       .  S
O1261     Ni1283   1.887       .  S
O1261     Ni1277   1.922       .  S
O1261      H1284   0.966       .  S
C1262      O1279   1.275       .  A
C1262      O1271   1.276       .  A
C1262      C1469   1.449       .  S
O1263     Ni1282   1.874       .  S
O1263      C1269   1.259       .  A
O1264     Ni1282   1.903       .  S
O1264      C1266   1.264       .  A
Ni1265     O1268   1.978       .  S
Ni1265     O1270   1.938       .  S
C1266      O1276   1.302       .  A
C1266      C1480   1.489       .  S
O1267     Ni1283   1.935       .  S
O1267      C1273   1.285       .  A
O1268      C1273   1.290       .  A
C1269      C1467   1.407       .  S
O1270      C1272   1.268       .  A
O1271     Ni1282   1.928       .  S
C1272      O1278   1.258       .  A
C1272      C1465   1.441       .  S
C1273      C1464   1.473       .  S
H1274      O1275   0.962       .  S
O1275     Ni1283   1.975       .  S
O1275     Ni1277   1.861       .  S
O1275     Ni1282   1.890       .  S
O1276     Ni1277   2.021       .  S
Ni1277     O1281   1.898       .  S
Ni1277     O1279   1.939       .  S
O1278     Ni1283   1.915       .  S
C1280      O1281   1.281       .  A
C1280      C1491   1.458       .  S
O1285     Ni1291   1.958       .  S
O1285      C1306   1.284       .  A
O1286     Ni1309   1.888       .  S
O1286      C1295   1.254       .  A
O1287     Ni1291   1.904       .  S
O1287     Ni1309   1.884       .  S
O1287     Ni1303   1.931       .  S
O1287      H1310   0.965       .  S
C1288      O1305   1.270       .  A
C1288      O1297   1.272       .  A
C1288      C1476   1.443       .  S
O1289     Ni1820   1.873   1_545  S
O1289      C1295   1.258       .  A
O1290     Ni1820   1.898       .  S
O1290      C1292   1.262   1_565  A
Ni1291     O1294   1.978       .  S
Ni1291     O1296   1.944       .  S
C1292      O1302   1.300       .  A
C1292      C1461   1.482       .  S
O1293     Ni1309   1.943       .  S
O1293      C1299   1.286       .  A
O1294      C1299   1.289       .  A
C1295      C1459   1.403       .  S
O1296      C1298   1.271       .  A
O1297     Ni1308   1.926       .  S
C1298      O1304   1.258       .  A
C1298      C1458   1.447       .  S
C1299      C1456   1.479       .  S
H1300      O1301   0.962       .  S
O1301     Ni1309   1.984       .  S
O1301     Ni1303   1.861       .  S
O1301     Ni1820   1.892   1_545  S
O1302     Ni1303   2.016       .  S
Ni1303     O1307   1.895       .  S
Ni1303     O1817   1.962   1_545  S
O1304     Ni1309   1.914       .  S
O1305     Ni1815   1.930       .  S
C1306      O1307   1.280       .  A
C1306      C1518   1.447       .  S
Ni1308     O1801   1.912       .  S
Ni1308     O1802   1.905       .  S
Ni1308     O1813   1.891       .  S
O1311     Ni1317   1.960       .  S
O1311      C1332   1.286       .  A
O1312     Ni1335   1.860       .  S
O1312      C1321   1.266       .  A
O1313     Ni1317   1.891       .  S
O1313     Ni1335   1.865       .  S
O1313     Ni1329   1.902       .  S
O1313      H1336   0.967       .  S
C1314      O1331   1.269       .  A
C1314      O1323   1.274       .  A
C1314      C1966   1.448       .  S
O1315     Ni1334   1.920       .  S
O1315      C1321   1.271       .  A
O1316     Ni1334   1.911       .  S
O1316      C1830   1.266       .  A
Ni1317     O1320   1.962       .  S
Ni1317     O1322   1.947       .  S
C1318      O1828   1.265   1_545  A
C1318      O1328   1.299   1_545  A
C1318      C1462   1.483       .  S
O1319     Ni1335   1.959       .  S
O1319      C1325   1.295       .  A
O1320      C1325   1.288       .  A
C1321      C1477   1.394       .  S
O1322      C1324   1.273       .  A
O1323     Ni1334   1.934       .  S
C1324      O1330   1.255       .  A
C1324      C1470   1.441       .  S
C1325      C1451   1.478       .  S
H1326      O1327   0.966       .  S
O1327     Ni1335   1.931       .  S
O1327     Ni1329   1.873       .  S
O1327     Ni1334   1.893       .  S
O1328     Ni1841   2.011       .  S
Ni1329     O1840   2.011       .  S
Ni1329     O1333   1.892       .  S
Ni1329     O1331   1.927       .  S
O1330     Ni1335   1.893       .  S
C1332      O1333   1.281       .  A
C1332      C2039   1.448       .  S
O1337     Ni1343   1.958       .  S
O1337      C1358   1.283       .  A
O1338     Ni1361   1.892       .  S
O1338      C1347   1.260       .  A
O1339     Ni1343   1.903       .  S
O1339     Ni1361   1.887       .  S
O1339     Ni1355   1.924       .  S
O1339      H1362   0.966       .  S
C1340      O1357   1.272       .  A
C1340      O1349   1.272       .  A
C1340      C1466   1.445       .  S
O1341      C1347   1.260       .  A
O1342      C1344   1.261       .  A
Ni1343     O1346   1.973       .  S
Ni1343     O1348   1.940       .  S
C1344      O1354   1.298       .  A
C1344      C1449   1.484       .  S
O1345     Ni1361   1.946       .  S
O1345      C1351   1.289       .  A
O1346      C1351   1.289       .  A
C1347      C1448   1.405       .  S
O1348      C1350   1.269       .  A
O1349     Ni1360   1.922       .  S
C1350      O1356   1.259       .  A
C1350      C1445   1.441       .  S
C1351      C1452   1.478       .  S
O1353     Ni1361   1.973       .  S
O1353     Ni1355   1.861       .  S
O1354     Ni1355   2.015       .  S
Ni1355     O1359   1.894       .  S
O1356     Ni1361   1.912       .  S
C1358      O1359   1.279       .  A
C1358      C1484   1.448       .  S
O1363     Ni1369   1.950       .  S
O1363      C1384   1.283       .  A
O1364     Ni1387   1.860       .  S
O1364      C1373   1.266       .  A
O1365     Ni1369   1.892       .  S
O1365     Ni1387   1.866       .  S
O1365     Ni1381   1.907       .  S
O1365      H1388   0.968       .  S
C1366      O1383   1.271       .  A
C1366      O1375   1.273       .  A
O1367     Ni1386   1.919       .  S
O1367      C1373   1.270       .  A
O1368     Ni1386   1.908       .  S
O1368      C1370   1.265       .  A
Ni1369     O1372   1.959       .  S
Ni1369     O1374   1.940       .  S
C1370      O1380   1.299       .  A
O1371     Ni1387   1.961       .  S
O1371      C1377   1.294       .  A
O1372      C1377   1.287       .  A
C1373      C1468   1.397       .  S
O1374      C1376   1.270       .  A
O1375     Ni1386   1.929       .  S
C1376      O1382   1.257       .  A
C1376      C1474   1.440       .  S
C1377      C1455   1.478       .  S
H1378      O1379   0.964       .  S
O1379     Ni1387   1.935       .  S
O1379     Ni1381   1.875       .  S
O1379     Ni1386   1.895       .  S
O1380     Ni1381   2.008       .  S
Ni1381     O1385   1.895       .  S
Ni1381     O1383   1.935       .  S
O1382     Ni1387   1.899       .  S
C1384      O1385   1.282       .  A
C1384      C1482   1.444       .  S
O1389     Ni1395   1.937       .  S
O1389      C1410   1.281       .  A
O1390     Ni1413   1.855       .  S
O1390      C1399   1.262       .  A
O1391     Ni1395   1.892       .  S
O1391     Ni1413   1.858       .  S
O1391     Ni1407   1.901       .  S
O1391      H1414   0.967       .  S
C1392      O1409   1.276       .  A
C1392      O1401   1.276       .  A
C1392      C1969   1.450       .  S
O1393      C1399   1.269       .  A
O1394      C1908   1.269       .  A
Ni1395     O1398   1.940       .  S
Ni1395     O1400   1.943       .  S
C1396      O1906   1.264   1_545  A
C1396      O1406   1.301       .  A
C1396      C1442   1.486       .  S
O1397     Ni1413   1.958       .  S
O1397      C1403   1.294       .  A
O1398      C1403   1.282       .  A
C1399      C1447   1.396       .  S
O1400      C1402   1.272       .  A
O1401     Ni1412   1.929       .  S
C1402      O1408   1.254       .  A
C1402      C1444   1.439       .  S
C1403      C1472   1.463       .  S
O1405     Ni1413   1.942       .  S
O1405     Ni1407   1.884       .  S
O1406     Ni1919   2.017   1_545  S
Ni1407     O1918   2.001       .  S
Ni1407     O1411   1.895       .  S
O1408     Ni1413   1.888       .  S
C1410      O1411   1.282       .  A
C1410      C2013   1.434       .  S
O1415     Ni1421   1.942       .  S
O1415      C1436   1.281       .  A
O1416     Ni1439   1.863       .  S
O1416      C1425   1.267   1_545  A
O1417     Ni1421   1.892       .  S
O1417     Ni1439   1.864       .  S
O1417     Ni1433   1.905       .  S
O1417      H1440   0.967       .  S
C1418      O1435   1.274       .  A
C1418      O1427   1.274       .  A
O1419     Ni1950   1.913       .  S
O1419      C1425   1.268       .  A
O1420     Ni1950   1.909       .  S
O1420      C1422   1.266       .  A
Ni1421     O1424   1.947       .  S
Ni1421     O1426   1.940       .  S
C1422      O1432   1.295   1_565  A
O1423     Ni1439   1.963       .  S
O1423      C1429   1.295       .  A
O1424      C1429   1.284       .  A
C1425      C1460   1.393       .  S
O1426      C1428   1.271       .  A
O1427     Ni1438   1.921       .  S
C1428      O1434   1.256       .  A
C1428      C1453   1.437   1_545  S
C1429      C1463   1.472       .  S
H1430      O1431   0.966       .  S
O1431     Ni1439   1.932   1_565  S
O1431     Ni1433   1.872   1_565  S
O1431     Ni1950   1.894       .  S
O1432     Ni1433   1.998       .  S
Ni1433     O1437   1.886       .  S
Ni1433     O1947   1.939   1_545  S
O1434     Ni1439   1.892       .  S
O1435     Ni1945   1.936       .  S
C1436      O1437   1.278       .  A
C1436      C1510   1.430       .  S
Ni1438     O1931   1.879       .  S
Ni1438     O1932   1.905       .  S
Ni1438     O1943   1.888       .  S
C1441      C1442   1.240       .  T
C1443      C1444   1.213       .  T
C1445      C1446   1.212       .  T
C1447      C1448   1.186       .  T
C1449      C1450   1.239       .  T
C1451      C1452   1.232       .  T
C1453      C1454   1.211       .  T
C1454      C1826   1.445       .  S
C1455      C1456   1.232       .  T
C1457      C1904   1.452   1_545  S
C1457      C1458   1.215       .  T
C1459      C1460   1.182   1_545  T
C1461      C1462   1.239       .  T
C1463      C1464   1.229       .  T
C1465      C1466   1.211       .  T
C1467      C1468   1.185       .  T
C1469      C1470   1.213       .  T
C1471      C1472   1.224       .  T
C1473      C1474   1.211       .  T
C1475      C1476   1.210       .  T
C1477      C1478   1.184       .  T
C1479      C1480   1.242       .  T
C1485      C1486   1.237       .  T
C1487      C1488   1.224       .  T
C1489      C1490   1.213       .  T
C1491      C1492   1.220   1_554  T
C1493      C1494   1.182       .  T
C1495      C1496   1.214       .  T
C1497      C1498   1.241       .  T
C1499      C1500   1.230       .  T
C1501      C1922   1.465   1_545  S
C1503      C1504   1.219       .  T
C1505      C1506   1.183       .  T
C1507      C1508   1.229       .  T
C1511      C1628   1.492       .  S
C1511      C1512   1.244       .  T
C1513      C1514   1.215   1_655  T
C1515      C1516   1.228       .  T
C1517      C2030   1.216       .  T
C1518      C2029   1.214       .  T
C1519      C2032   1.214       .  T
C1520      C2031   1.208       .  T
C1521      C1522   1.184       .  T
C1523      C1524   1.214       .  T
C1525      C1526   1.225       .  T
C1527      C1844   1.447   1_545  S
C1527      C1528   1.213   1_554  T
C1529      C2042   1.213   1_545  T
C1530      C2041   1.216       .  T
C1531      C1532   1.183       .  T
C1533      C1534   1.211       .  T
C1535      C1550   1.483       .  S
C1535      C1536   1.238       .  T
O1537     Ni1543   1.877       .  S
O1537      C1558   1.259       .  A
O1538     Ni1561   1.889       .  S
O1538      C1547   1.277       .  A
O1539     Ni1543   1.889       .  S
O1539     Ni1561   1.860       .  S
O1539     Ni1555   1.970       .  S
O1539      H1562   0.964       .  S
C1540      O1557   1.288       .  A
C1540      O1549   1.289       .  A
C1540      C2037   1.472       .  S
O1541     Ni1560   1.964       .  S
O1541      C1547   1.286       .  A
O1542     Ni1560   1.943       .  S
O1542      C1544   1.271       .  A
Ni1543     O1546   1.926       .  S
Ni1543     O1548   1.902       .  S
C1544      O1554   1.259       .  A
C1544      C2045   1.445       .  S
O1545     Ni1561   1.952       .  S
O1545      C1551   1.280       .  A
O1546      C1551   1.277       .  A
C1547      C2040   1.448       .  S
O1548      C1550   1.261       .  A
O1549     Ni1560   1.971       .  S
C1550      O1556   1.296       .  A
C1551      C2041   1.454       .  S
H1552      O1553   0.966       .  S
O1553     Ni1561   1.920       .  S
O1553     Ni1555   1.883       .  S
O1553     Ni1560   1.899       .  S
O1554     Ni1555   1.913       .  S
Ni1555     O1559   1.889       .  S
Ni1555     O1557   1.941       .  S
O1556     Ni1561   2.012       .  S
C1558      O1559   1.259       .  A
C1558      C2044   1.400       .  S
O1563      C1584   1.268       .  A
O1564     Ni1587   1.897   1_565  S
O1564      C1573   1.282       .  A
O1565     Ni1587   1.876       .  S
O1565     Ni1581   1.928   1_545  S
C1566      O1583   1.291       .  A
C1566      O1575   1.286       .  A
C1566      C2027   1.472       .  S
O1567     Ni1586   1.949       .  S
O1567      C1573   1.283       .  A
O1568     Ni1586   1.935       .  S
O1568      C1570   1.270   1_565  A
Ni1569     O1572   1.924       .  S
C1570      O1580   1.257       .  A
C1570      C2031   1.434       .  S
O1571      C1577   1.278       .  A
O1572      C1577   1.276       .  A
C1573      C2029   1.447   1_565  S
O1574      C1576   1.264       .  A
O1575     Ni1586   1.956       .  S
C1576      O1582   1.298       .  A
C1576      C2048   1.483       .  S
C1577      C2035   1.451       .  S
H1578      O1579   0.967       .  S
O1579     Ni1587   1.907   1_565  S
O1579     Ni1581   1.868       .  S
O1579     Ni1586   1.895       .  S
O1580     Ni1581   1.893   1_545  S
Ni1581     O1585   1.862   1_565  S
Ni1581     O1583   1.955       .  S
O1582     Ni1587   2.009       .  S
C1584      O1585   1.265       .  A
C1584      C2034   1.394       .  S
O1589      C1610   1.259   1_545  A
O1590     Ni1613   1.898       .  S
O1590      C1599   1.282       .  A
O1591     Ni1595   1.894       .  S
O1591      H1614   0.966       .  S
C1592      O1609   1.284       .  A
C1592      O1601   1.290       .  A
C1592      C2019   1.472       .  S
O1593     Ni1612   1.957       .  S
O1593      C1599   1.283       .  A
O1594     Ni1612   1.939       .  S
O1594      C1596   1.268       .  A
Ni1595     O1598   1.925       .  S
C1596      O1606   1.259       .  A
C1596      C2042   1.444       .  S
O1597      C1603   1.274       .  A
O1598      C1603   1.271       .  A
C1599      C2021   1.454       .  S
O1600      C1602   1.264       .  A
O1601     Ni1612   1.978       .  S
C1602      O1608   1.303   1_545  A
H1604      O1605   0.966       .  S
O1605     Ni1613   1.923       .  S
O1605     Ni1607   1.883       .  S
O1605     Ni1612   1.905       .  S
O1606     Ni1607   1.916       .  S
Ni1607     O1611   1.887       .  S
Ni1607     O1609   1.932       .  S
O1608     Ni1613   2.026       .  S
C1610      O1611   1.255       .  A
C1610      C2033   1.403   1_565  S
O1615      C1636   1.259       .  A
O1616     Ni1639   1.902       .  S
O1616      C1625   1.283       .  A
O1617     Ni1639   1.863       .  S
O1617     Ni1633   1.959       .  S
C1618      O1635   1.282       .  A
C1618      O1627   1.292       .  A
C1618      C2012   1.469       .  S
O1619     Ni1638   1.971       .  S
O1619      C1625   1.286       .  A
O1620     Ni1638   1.937       .  S
O1620      C1622   1.268       .  A
Ni1621     O1624   1.924       .  S
C1622      O1632   1.259       .  A
C1622      C2015   1.441       .  S
O1623      C1629   1.276       .  A
O1624      C1629   1.274       .  A
C1625      C2014   1.466       .  S
O1626      C1628   1.260   1_455  A
O1627     Ni1638   1.983       .  S
C1628      O1634   1.301       .  A
C1629      C2032   1.450       .  S
H1630      O1631   0.966       .  S
O1631     Ni1639   1.918       .  S
O1631     Ni1633   1.891       .  S
O1631     Ni1638   1.903       .  S
O1632     Ni1633   1.916       .  S
Ni1633     O1637   1.892       .  S
Ni1633     O1635   1.925       .  S
O1634     Ni1639   2.025       .  S
C1636      O1637   1.259       .  A
C1636      C2018   1.406   1_655  S
O1641     Ni1647   1.913       .  S
O1641      C1662   1.268       .  A
O1642     Ni1665   1.889       .  S
O1642      C1651   1.278       .  A
O1643     Ni1647   1.895       .  S
O1643     Ni1665   1.878       .  S
O1643     Ni1659   1.936       .  S
O1643      H1666   0.965       .  S
C1644      O1661   1.295       .  A
C1644      O1653   1.284       .  A
C1644      C2020   1.470       .  S
O1645     Ni1664   1.944       .  S
O1645      C1651   1.282       .  A
O1646     Ni1664   1.939       .  S
O1646      C1648   1.271       .  A
Ni1647     O1650   1.924       .  S
Ni1647     O1652   1.910       .  S
C1648      O1658   1.257       .  A
C1648      C2008   1.438       .  S
O1649     Ni1665   1.940       .  S
O1649      C1655   1.273       .  A
O1650      C1655   1.271       .  A
C1651      C2004   1.434       .  S
O1652      C1654   1.268       .  A
O1653     Ni1664   1.946       .  S
C1654      O1660   1.295       .  A
C1654      C2009   1.474       .  S
C1655      C2046   1.449       .  S
H1656      O1657   0.967       .  S
O1657     Ni1665   1.903       .  S
O1657     Ni1659   1.864       .  S
O1657     Ni1664   1.890       .  S
O1658     Ni1659   1.896       .  S
Ni1659     O1663   1.865       .  S
Ni1659     O1661   1.962       .  S
O1660     Ni1665   1.995       .  S
C1662      O1663   1.268       .  A
C1662      C2006   1.396       .  S
O1667     Ni1673   1.905       .  S
O1667      C1688   1.264       .  A
O1668     Ni1691   1.890       .  S
O1668      C1677   1.279       .  A
O1669     Ni1673   1.910       .  S
O1669     Ni1691   1.894       .  S
O1669     Ni1685   1.958       .  S
O1669      H1692   0.965       .  S
C1670      O1687   1.295       .  A
C1670      O1679   1.282       .  A
C1670      C2011   1.466       .  S
O1671     Ni1690   1.946       .  S
O1671      C1677   1.283       .  A
O1672     Ni1690   1.946       .  S
O1672      C1674   1.273       .  A
Ni1673     O1676   1.917       .  S
Ni1673     O1678   1.897       .  S
C1674      O1684   1.255       .  A
C1674      C2036   1.442       .  S
O1675     Ni1691   1.921       .  S
O1675      C1681   1.262       .  A
O1676      C1681   1.263       .  A
C1677      C1999   1.437       .  S
O1678      C1680   1.272       .  A
O1679     Ni1690   1.942       .  S
C1680      O1686   1.304       .  A
C1680      C2010   1.470       .  S
C1681      C2002   1.447       .  S
H1682      O1683   0.967       .  S
O1683     Ni1691   1.895       .  S
O1683     Ni1685   1.854       .  S
O1683     Ni1690   1.893       .  S
O1684     Ni1685   1.891       .  S
Ni1685     O1689   1.856       .  S
Ni1685     O1687   1.960       .  S
O1686     Ni1691   2.003       .  S
C1688      O1689   1.261       .  A
C1688      C2043   1.392       .  S
O1693      C1714   1.272       .  A
O1694     Ni1717   1.894   1_655  S
O1694      C1703   1.283       .  A
O1695     Ni1717   1.880       .  S
O1695     Ni1711   1.938   1_455  S
C1696      O1713   1.293       .  A
C1696      O1705   1.288       .  A
C1696      C2038   1.471       .  S
O1697     Ni1716   1.955       .  S
O1697      C1703   1.286       .  A
O1698     Ni1716   1.952       .  S
O1698      C1700   1.273       .  A
Ni1699     O1702   1.918       .  S
C1700      O1710   1.252       .  A
C1700      C2025   1.443   1_655  S
O1701      C1707   1.277       .  A
O1702      C1707   1.275       .  A
C1703      C1995   1.448   1_655  S
O1704      C1706   1.269       .  A
O1705     Ni1716   1.959       .  S
C1706      O1712   1.302   1_455  A
C1706      C1997   1.483   1_455  S
C1707      C2007   1.445       .  S
H1708      O1709   0.967       .  S
O1709     Ni1717   1.899   1_655  S
O1709     Ni1711   1.860       .  S
O1709     Ni1716   1.890       .  S
O1710     Ni1711   1.887       .  S
Ni1711     O1715   1.853       .  S
Ni1711     O1713   1.952       .  S
O1712     Ni1717   2.007   1_655  S
C1714      O1715   1.262   1_455  A
C1714      C2017   1.397       .  S
O1719     Ni1725   1.870       .  S
O1719      C1740   1.258       .  A
O1720     Ni1743   1.895       .  S
O1720      C1729   1.279       .  A
O1721     Ni1725   1.895       .  S
O1721     Ni1743   1.863       .  S
O1721     Ni1737   1.983       .  S
O1721      H1744   0.963       .  S
C1722      O1739   1.287       .  A
C1722      O1731   1.286       .  A
C1722      C2028   1.472       .  S
O1723     Ni1742   1.953       .  S
O1723      C1729   1.283       .  A
O1724     Ni1742   1.940       .  S
O1724      C1726   1.270       .  A
Ni1725     O1728   1.922       .  S
Ni1725     O1730   1.900       .  S
C1726      O1736   1.259       .  A
C1726      C2001   1.442       .  S
O1727     Ni1743   1.962       .  S
O1727      C1733   1.283       .  A
O1728      C1733   1.275       .  A
C1729      C1993   1.444       .  S
O1731     Ni1742   1.967       .  S
C1732      C1998   1.483   1_455  S
H1734      O1735   0.965       .  S
O1735     Ni1743   1.927       .  S
O1735     Ni1737   1.883       .  S
O1735     Ni1742   1.901       .  S
O1736     Ni1737   1.912       .  S
Ni1737     O1741   1.891       .  S
Ni1737     O1739   1.942       .  S
O1738     Ni1743   2.010       .  S
C1740      O1741   1.255       .  A
C1740      C2005   1.406       .  S
O1745     Ni1751   1.950       .  S
O1745      C1766   1.285       .  A
O1746     Ni1769   1.863       .  S
O1746      C1755   1.268       .  A
O1747     Ni1751   1.892       .  S
O1747     Ni1769   1.863       .  S
O1747     Ni1763   1.911       .  S
O1747      H1770   0.968       .  S
C1748      O1765   1.277       .  A
C1748      O1757   1.274       .  A
C1748      C1985   1.456       .  S
O1749     Ni1768   1.913       .  S
O1749      C1755   1.268       .  A
O1750     Ni1768   1.905       .  S
O1750      C1752   1.262       .  A
Ni1751     O1754   1.947       .  S
Ni1751     O1756   1.954       .  S
C1752      O1762   1.298       .  A
C1752      C1991   1.481       .  S
O1753     Ni1769   1.971       .  S
O1753      C1759   1.298       .  A
O1754      C1759   1.284       .  A
C1755      C1990   1.394       .  S
O1756      C1758   1.276       .  A
O1757     Ni1768   1.928       .  S
C1758      O1764   1.257       .  A
C1758      C1987   1.456       .  S
C1759      C1983   1.477       .  S
H1760      O1761   0.966       .  S
O1761     Ni1769   1.941       .  S
O1761     Ni1763   1.870       .  S
O1761     Ni1768   1.894       .  S
O1762     Ni1763   2.012       .  S
Ni1763     O1767   1.891       .  S
Ni1763     O1765   1.950       .  S
O1764     Ni1769   1.902       .  S
C1766      O1767   1.281       .  A
C1766      C2000   1.437       .  S
O1771     Ni1777   1.946       .  S
O1771      C1792   1.283       .  A
O1772     Ni1795   1.863       .  S
O1772      C1781   1.266       .  A
O1773     Ni1777   1.892       .  S
O1773     Ni1795   1.861       .  S
O1773     Ni1789   1.903       .  S
O1773      H1796   0.968       .  S
C1774      O1791   1.272       .  A
C1774      O1783   1.272       .  A
C1774      C1981   1.449       .  S
O1775     Ni1794   1.912       .  S
O1775      C1781   1.268       .  A
O1776     Ni1794   1.909       .  S
O1776      C1778   1.266       .  A
Ni1777     O1780   1.945       .  S
Ni1777     O1782   1.951       .  S
C1778      O1788   1.299       .  A
C1778      C1992   1.482       .  S
O1779     Ni1795   1.962       .  S
O1779      C1785   1.296       .  A
O1780      C1785   1.284       .  A
C1781      C1979   1.393       .  S
O1782      C1784   1.273       .  A
O1783     Ni1794   1.926       .  S
C1784      O1790   1.254       .  A
C1784      C1977   1.446       .  S
C1785      C1976   1.468       .  S
H1786      O1787   0.966       .  S
O1787     Ni1795   1.938       .  S
O1787     Ni1789   1.874       .  S
O1787     Ni1794   1.892       .  S
O1788     Ni1789   2.008       .  S
Ni1789     O1793   1.889       .  S
Ni1789     O1791   1.937       .  S
O1790     Ni1795   1.893       .  S
C1792      O1793   1.280       .  A
C1792      C2003   1.434       .  S
O1797     Ni1803   1.955       .  S
O1797      C1818   1.286       .  A
O1798     Ni1821   1.863       .  S
O1798      C1807   1.266       .  A
O1799     Ni1803   1.888       .  S
O1799     Ni1821   1.864       .  S
O1799     Ni1815   1.901       .  S
O1799      H1822   0.967       .  S
C1800      O1817   1.283       .  A
C1800      O1809   1.277       .  A
C1800      C1988   1.463       .  S
O1801      C1807   1.268       .  A
O1802      C1804   1.263       .  A
Ni1803     O1806   1.958       .  S
Ni1803     O1808   1.948       .  S
C1804      O1814   1.301       .  A
C1804      C1973   1.486       .  S
O1805     Ni1821   1.953       .  S
O1805      C1811   1.293       .  A
O1806      C1811   1.288       .  A
C1807      C1971   1.390       .  S
O1808      C1810   1.273       .  A
O1809     Ni1820   1.927       .  S
C1810      O1816   1.255       .  A
C1810      C1970   1.442       .  S
C1811      C1968   1.469       .  S
H1812      O1813   0.966       .  S
O1813     Ni1821   1.932       .  S
O1813     Ni1815   1.873       .  S
O1814     Ni1815   2.015       .  S
Ni1815     O1819   1.897       .  S
O1816     Ni1821   1.894       .  S
C1818      O1819   1.284       .  A
C1818      C2030   1.450       .  S
O1823     Ni1829   1.955       .  S
O1823      C1844   1.282       .  A
O1824     Ni1847   1.887       .  S
O1824      C1833   1.255       .  A
O1825     Ni1829   1.902       .  S
O1825     Ni1847   1.883       .  S
O1825     Ni1841   1.918       .  S
O1825      H1848   0.965       .  S
C1826      O1843   1.275       .  A
C1826      O1835   1.275       .  A
O1827     Ni1846   1.872       .  S
O1827      C1833   1.258       .  A
O1828     Ni1846   1.905       .  S
Ni1829     O1832   1.972       .  S
Ni1829     O1834   1.942       .  S
C1830      O1840   1.299       .  A
C1830      C1974   1.487       .  S
O1831     Ni1847   1.929       .  S
O1831      C1837   1.284       .  A
O1832      C1837   1.289       .  A
C1833      C1989   1.404       .  S
O1834      C1836   1.269       .  A
O1835     Ni1846   1.922       .  S
C1836      O1842   1.258       .  A
C1836      C1982   1.443       .  S
C1837      C1963   1.467       .  S
H1838      O1839   0.963       .  S
O1839     Ni1847   1.970       .  S
O1839     Ni1841   1.864       .  S
O1839     Ni1846   1.890       .  S
Ni1841     O1845   1.894   1_565  S
Ni1841     O1843   1.938       .  S
O1842     Ni1847   1.914       .  S
C1844      O1845   1.279   1_565  A
O1849     Ni1855   1.946       .  S
O1849      C1870   1.282       .  A
O1850     Ni1873   1.866       .  S
O1850      C1859   1.267       .  A
O1851     Ni1855   1.891       .  S
O1851     Ni1873   1.868       .  S
O1851     Ni1867   1.905       .  S
O1851      H1874   0.968       .  S
C1852      O1869   1.280       .  A
C1852      O1861   1.277       .  A
C1852      C1978   1.455       .  S
O1853      C1859   1.267       .  A
O1854      C1856   1.264       .  A
Ni1855     O1858   1.950       .  S
Ni1855     O1860   1.935       .  S
C1856      O1866   1.298       .  A
C1856      C1961   1.482       .  S
O1857     Ni1873   1.954       .  S
O1857      C1863   1.292       .  A
O1858      C1863   1.285       .  A
C1859      C1960   1.392       .  S
O1860      C1862   1.270       .  A
O1861     Ni1872   1.926       .  S
C1862      O1868   1.258       .  A
C1862      C1957   1.436       .  S
C1863      C1964   1.466       .  S
O1865     Ni1873   1.930       .  S
O1865     Ni1867   1.876       .  S
O1866     Ni1867   2.009       .  S
Ni1867     O1871   1.898       .  S
O1868     Ni1873   1.898       .  S
C1870      O1871   1.283       .  A
C1870      C1996   1.447       .  S
O1875     Ni1881   1.959       .  S
O1875      C1896   1.285       .  A
O1876     Ni1899   1.885       .  S
O1876      C1885   1.258       .  A
O1877     Ni1881   1.899       .  S
O1877     Ni1899   1.880       .  S
O1877     Ni1893   1.915       .  S
O1877      H1900   0.966       .  S
C1878      O1895   1.277       .  A
C1878      O1887   1.276       .  A
O1879     Ni1898   1.876       .  S
O1879      C1885   1.260       .  A
O1880     Ni1898   1.905       .  S
O1880      C1882   1.263       .  A
Ni1881     O1884   1.971       .  S
Ni1881     O1886   1.951       .  S
C1882      O1892   1.298       .  A
O1883     Ni1899   1.937       .  S
O1883      C1889   1.287       .  A
O1884      C1889   1.289       .  A
C1885      C1980   1.401       .  S
O1886      C1888   1.272       .  A
O1887     Ni1898   1.924       .  S
C1888      O1894   1.256       .  A
C1888      C1986   1.450       .  S
C1889      C1967   1.470       .  S
H1890      O1891   0.965       .  S
O1891     Ni1899   1.967       .  S
O1891     Ni1893   1.862       .  S
O1891     Ni1898   1.888       .  S
O1892     Ni1893   2.013       .  S
Ni1893     O1897   1.890       .  S
Ni1893     O1895   1.944       .  S
O1894     Ni1899   1.910       .  S
C1896      O1897   1.278       .  A
C1896      C1994   1.445       .  S
O1901     Ni1907   1.973       .  S
O1901      C1922   1.287       .  A
O1902     Ni1925   1.884       .  S
O1902      C1911   1.255       .  A
O1903     Ni1907   1.904       .  S
O1903     Ni1925   1.887       .  S
O1903     Ni1919   1.925       .  S
O1903      H1926   0.965       .  S
C1904      O1921   1.270       .  A
C1904      O1913   1.269       .  A
O1905      C1911   1.259       .  A
Ni1907     O1910   1.993       .  S
Ni1907     O1912   1.944       .  S
C1908      O1918   1.300       .  A
C1908      C1954   1.474       .  S
O1909     Ni1925   1.931       .  S
O1909      C1915   1.284       .  A
O1910      C1915   1.294       .  A
C1911      C1959   1.400       .  S
O1912      C1914   1.269       .  A
O1913     Ni1924   1.926       .  S
C1914      O1920   1.256       .  A
C1914      C1956   1.442       .  S
C1915      C1984   1.480       .  S
O1917     Ni1925   1.971       .  S
O1917     Ni1919   1.860       .  S
Ni1919     O1923   1.898   1_565  S
O1920     Ni1925   1.912       .  S
C1922      O1923   1.281   1_565  A
O1927     Ni1933   1.958       .  S
O1927      C1948   1.283       .  A
O1928     Ni1951   1.879       .  S
O1928      C1937   1.256       .  A
O1929     Ni1933   1.903       .  S
O1929     Ni1951   1.884       .  S
O1929     Ni1945   1.917       .  S
O1929      H1952   0.965       .  S
C1930      O1947   1.273       .  A
C1930      O1939   1.272       .  A
O1931      C1937   1.260       .  A
O1932      C1934   1.265       .  A
Ni1933     O1936   1.985       .  S
Ni1933     O1938   1.947       .  S
C1934      O1944   1.300       .  A
O1935     Ni1951   1.926       .  S
O1935      C1941   1.283       .  A
O1936      C1941   1.293       .  A
C1937      C1972   1.398       .  S
O1938      C1940   1.267       .  A
O1939     Ni1950   1.923       .  S
C1940      O1946   1.251       .  A
C1940      C1965   1.439       .  S
C1941      C1975   1.470       .  S
H1942      O1943   0.964       .  S
O1943     Ni1951   1.960       .  S
O1943     Ni1945   1.867       .  S
O1944     Ni1945   2.014       .  S
Ni1945     O1949   1.898       .  S
O1946     Ni1951   1.904       .  S
C1948      O1949   1.282       .  A
C1948      C2022   1.454       .  S
C1953      C1954   1.233       .  T
C1955      C1956   1.213       .  T
C1957      C1958   1.209       .  T
C1959      C1960   1.181       .  T
C1961      C1962   1.237       .  T
C1963      C1964   1.225       .  T
C1965      C1966   1.212       .  T
C1967      C1968   1.227       .  T
C1969      C1970   1.214       .  T
C1971      C1972   1.181       .  T
C1973      C1974   1.240       .  T
C1975      C1976   1.227       .  T
C1977      C1978   1.216       .  T
C1979      C1980   1.183       .  T
C1981      C1982   1.213       .  T
C1983      C1984   1.232       .  T
C1985      C1986   1.218       .  T
C1987      C1988   1.222       .  T
C1989      C1990   1.183       .  T
C1991      C1992   1.237       .  T
C1997      C1998   1.238       .  T
C1999      C2000   1.208       .  T
C2001      C2002   1.212       .  T
C2003      C2004   1.206   1_554  T
C2005      C2006   1.184       .  T
C2007      C2008   1.211       .  T
C2009      C2010   1.232       .  T
C2011      C2012   1.226       .  T
C2015      C2016   1.212   1_655  T
C2017      C2018   1.187       .  T
C2019      C2020   1.228       .  T
C2023      C2024   1.234       .  T
C2025      C2026   1.216       .  T
C2027      C2028   1.228       .  T
C2033      C2034   1.183       .  T
C2035      C2036   1.214       .  T
C2037      C2038   1.228       .  T
C2039      C2040   1.214   1_554  T
C2043      C2044   1.182       .  T
C2045      C2046   1.214       .  T
C2047      C2048   1.238       .  T
