geometry optimzed in LAMMPS
_audit_creation_date              2020-12-01 
_audit_creation_method            'lammps2cif' 
_symmetry_space_group_name_H-M    'P1' 
_symmetry_Int_Tables_number       1 
_symmetry_cell_setting            triclinic 
loop_ 
_symmetry_equiv_pos_as_xyz 
  x,y,z 
_cell_length_a                    63.12586305 
_cell_length_b                    63.11744201374011 
_cell_length_c                    35.262138955679916 
_cell_angle_alpha                 90.02256849048425 
_cell_angle_beta                  89.77030160404958 
_cell_angle_gamma                 89.93504210328231 
loop_ 
_atom_site_label 
_atom_site_type_symbol 
_atom_site_fract_x 
_atom_site_fract_y 
_atom_site_fract_z 
_atom_site_charge 
O1          O  0.82828029  0.38115332  0.44962033    -0.81000
O2          O  0.92182608  0.38223888  0.41194267    -0.65700
O3          O  0.86544015  0.36275600  0.42817989    -1.12300
C4          C  0.88296539  0.37397531  0.55806183     1.05900
O5          O  0.93318005  0.36054205  0.45655495    -0.78900
O6          O  0.90853629  0.33982216  0.50938605    -0.66500
Ni7        Ni  0.84228019  0.37545134  0.40277167     1.34900
C8          C  0.89154929  0.32922117  0.50553908     0.84600
O9          O  0.89090157  0.36908803  0.36423268    -0.79500
O10         O  0.85557521  0.37050354  0.35487238    -0.89700
C11         C  0.93688835  0.37237127  0.42797812     0.84200
O12         O  0.85118189  0.40414406  0.40230113    -0.67900
O13         O  0.90209342  0.37616122  0.54657456    -0.87200
C14         C  0.86889295  0.41323891  0.40589015     0.85000
C15         C  0.87457544  0.36863309  0.34264835     1.06600
H16         H  0.89195033  0.39255464  0.47725403     0.38400
O17         O  0.89312281  0.37754429  0.47229322    -1.09900
O18         O  0.87510807  0.33684038  0.48951261    -0.66500
Ni19       Ni  0.86580237  0.36586570  0.48219564     1.26300
O20         O  0.88590049  0.40301928  0.41202950    -0.66800
O21         O  0.86740126  0.36972773  0.53619300    -0.79000
C22         C  0.82291009  0.36574334  0.47028477     0.84400
O23         O  0.83720528  0.35531624  0.48738248    -0.66200
Ni24       Ni  0.91671606  0.36854689  0.50071507     1.27400
Ni25       Ni  0.89304813  0.37338362  0.41841168     1.26100
H26         H  0.86535975  0.34783311  0.42201159     0.38900
O27         O  0.82703267  0.37761852  0.95542605    -0.81000
O28         O  0.92029684  0.38061944  0.90962828    -0.65700
O29         O  0.86394914  0.36179350  0.92775822    -1.12300
C30         C  0.88579337  0.36691793  0.05722172     1.05900
O31         O  0.93148309  0.35635523  0.94980680    -0.78900
O32         O  0.90876266  0.33511701  0.00418134    -0.66500
Ni33       Ni  0.84030708  0.37594679  0.90674393     1.34900
C34         C  0.89193328  0.32473849  0.99783508     0.84600
O35         O  0.88796580  0.37005590  0.86326973    -0.79500
O36         O  0.85271625  0.37479906  0.85700965    -0.89700
C37         C  0.93519915  0.36933175  0.92294318     0.84200
O38         O  0.84934756  0.40448789  0.91268149    -0.67900
O39         O  0.90432306  0.37069674  0.04404447    -0.87200
C40         C  0.86747064  0.41307572  0.91244600     0.85000
C41         C  0.87129746  0.37229208  0.84303605     1.06600
H42         H  0.89190704  0.38916670  0.97835585     0.38400
O43         O  0.89294962  0.37439270  0.97139403    -1.09900
O44         O  0.87584067  0.33298615  0.98195320    -0.66500
Ni45       Ni  0.86613386  0.36195332  0.98197314     1.26300
O46         O  0.88453877  0.40229641  0.91384187    -0.66800
O47         O  0.86973826  0.36263164  0.03638144    -0.79000
C48         C  0.82295611  0.36072121  0.97329404     0.84400
O49         O  0.83807212  0.35037392  0.98807692    -0.66200
Ni50       Ni  0.91719794  0.36385419  0.99632889     1.27400
Ni51       Ni  0.89144423  0.37232799  0.91724869     1.26100
H52         H  0.86339157  0.34727751  0.91906659     0.38900
O53         O  0.82646591  0.13183185  0.19237046    -0.81000
O54         O  0.91887002  0.12989457  0.22658722    -0.65700
O55         O  0.86280929  0.15037047  0.21111441    -1.12300
C56         C  0.88177196  0.13944783  0.08111526     1.05900
O57         O  0.92948243  0.15394715  0.18533114    -0.78900
O58         O  0.90560150  0.17456400  0.13265956    -0.66500
Ni59       Ni  0.83963151  0.13912582  0.23876462     1.34900
C60         C  0.88811623  0.18438685  0.13544830     0.84600
O61         O  0.88782172  0.14268342  0.27492063    -0.79500
O62         O  0.85267977  0.14620389  0.28589706    -0.89700
C63         C  0.93357622  0.14093352  0.21185085     0.84200
O64         O  0.84833781  0.11036728  0.24435263    -0.67900
O65         O  0.90085578  0.13883322  0.09319673    -0.87200
C66         C  0.86535584  0.10048451  0.23709900     0.85000
C67         C  0.87190207  0.14564330  0.29706058     1.06600
H68         H  0.89015416  0.12086705  0.16098304     0.38400
O69         O  0.89069075  0.13582835  0.16668345    -1.09900
O70         O  0.87138289  0.17609893  0.14930591    -0.66500
Ni71       Ni  0.86314969  0.14676919  0.15669980     1.26300
O72         O  0.88200657  0.10972344  0.22520295    -0.66800
O73         O  0.86552375  0.14265229  0.10247475    -0.79000
C74         C  0.82041692  0.14708176  0.17194049     0.84400
O75         O  0.83409345  0.15639059  0.15126035    -0.66200
Ni76       Ni  0.91442462  0.14608498  0.13994944     1.27400
Ni77       Ni  0.89013547  0.13919717  0.22058668     1.26100
H78         H  0.86325640  0.16535805  0.21667227     0.38900
O79         O  0.82557429  0.13328818  0.68351407    -0.81000
O80         O  0.91819537  0.13020574  0.73110242    -0.65700
O81         O  0.86222543  0.14989323  0.71097059    -1.12300
C82         C  0.88538183  0.14375244  0.58206950     1.05900
O83         O  0.93066710  0.15383406  0.69083314    -0.78900
O84         O  0.90833114  0.17602106  0.63776554    -0.66500
Ni85       Ni  0.83836433  0.13583822  0.73226480     1.34900
C86         C  0.89129842  0.18657879  0.64114119     0.84600
O87         O  0.88556576  0.14131049  0.77616602    -0.79500
O88         O  0.85020259  0.13750416  0.78225451    -0.89700
C89         C  0.93359209  0.14092458  0.71806762     0.84200
O90         O  0.84735107  0.10717514  0.72763805    -0.67900
O91         O  0.90388849  0.14106740  0.59588261    -0.87200
C92         C  0.86544749  0.09850192  0.72701915     0.85000
C93         C  0.86875452  0.13938101  0.79628341     1.06600
H94         H  0.89086174  0.12212831  0.66140793     0.38400
O95         O  0.89172643  0.13692691  0.66825915    -1.09900
O96         O  0.87427493  0.17840705  0.65431621    -0.66500
Ni97       Ni  0.86481616  0.14909602  0.65668264     1.26300
O98         O  0.88247809  0.10922152  0.72507261    -0.66800
O99         O  0.86881759  0.14728949  0.60237329    -0.79000
C100        C  0.82127694  0.14974954  0.66462719     0.84400
O101        O  0.83643030  0.16016083  0.64973628    -0.66200
Ni102      Ni  0.91637701  0.14712985  0.64407296     1.27400
Ni103      Ni  0.88958491  0.13907217  0.72231970     1.26100
H104        H  0.86167230  0.16451238  0.71912116     0.38900
O105        O  0.34813172  0.43957989  0.06972226    -0.81000
O106        O  0.34948703  0.34456582  0.11600493    -0.65700
O107        O  0.36705331  0.40193356  0.09625308    -1.12300
C108        C  0.36724948  0.37698045  0.96826408     1.05900
O109        O  0.37700528  0.33596623  0.08207287    -0.78900
O110        O  0.40037779  0.35844175  0.03486272    -0.66500
Ni111      Ni  0.35285299  0.42556749  0.11797994     1.34900
C112        C  0.40827517  0.37668643  0.03913467     0.84600
O113        O  0.35925695  0.37817237  0.16214918    -0.79500
O114        O  0.35674081  0.41373811  0.16793383    -0.89700
C115        C  0.36106629  0.33029744  0.10116537     0.84200
O116        O  0.32448684  0.41504000  0.11811116    -0.67900
O117        O  0.36880205  0.35852191  0.98281067    -0.87200
C118        C  0.31688209  0.39641296  0.11805737     0.85000
C119        C  0.35835743  0.39512704  0.18210524     1.06600
H120        H  0.34280076  0.36970710  0.04592249     0.38400
O121        O  0.35735782  0.37096431  0.05401674    -1.09900
O122        O  0.39694042  0.39326680  0.04290560    -0.66500
Ni123      Ni  0.36669076  0.39882565  0.04214746     1.26300
O124        O  0.32794365  0.38004555  0.11048081    -0.66800
O125        O  0.36622781  0.39400507  0.98807675    -0.79000
C126        C  0.36171797  0.44275740  0.04341204     0.84400
O127        O  0.37397382  0.42786888  0.03282516    -0.66200
Ni128      Ni  0.37242141  0.34762410  0.03298215     1.27400
Ni129      Ni  0.35787276  0.37383702  0.10818676     1.26100
H130        H  0.38160548  0.40303614  0.10441263     0.38900
O131        O  0.35015341  0.43786149  0.58136396    -0.81000
O132        O  0.34672060  0.34270715  0.61300916    -0.65700
O133        O  0.36820301  0.39858712  0.59650526    -1.12300
C134        C  0.36091695  0.37900676  0.46732508     1.05900
O135        O  0.37321796  0.33399279  0.57617366    -0.78900
O136        O  0.39672670  0.35732668  0.53075926    -0.66500
Ni137      Ni  0.35957491  0.42224475  0.62511895     1.34900
C138        C  0.40459244  0.37571995  0.53242964     0.84600
O139        O  0.36041082  0.37370212  0.66132518    -0.79500
O140        O  0.36852983  0.40816672  0.67057994    -0.89700
C141        C  0.35758272  0.32849490  0.59633865     0.84200
O142        O  0.33129824  0.41359710  0.63570620    -0.67900
O143        O  0.36424688  0.36019469  0.47952122    -0.87200
C144        C  0.32042542  0.39692545  0.63069986     0.85000
C145        C  0.36570597  0.38926188  0.68263405     1.06600
H146        H  0.33931221  0.36927676  0.54651323     0.38400
O147        O  0.35415594  0.37015021  0.55298415    -1.09900
O148        O  0.39333208  0.39223811  0.53585094    -0.66500
Ni149      Ni  0.36365963  0.39804934  0.54278237     1.26300
O150        O  0.32768701  0.38063882  0.61343321    -0.66800
O151        O  0.35951856  0.39532036  0.48890873    -0.79000
C152        C  0.36158419  0.44182365  0.55242601     0.84400
O153        O  0.37146039  0.42698037  0.53568257    -0.66200
Ni154      Ni  0.36835462  0.34738588  0.52848396     1.27400
Ni155      Ni  0.35686151  0.37133160  0.60715002     1.26100
H156        H  0.38324400  0.39747377  0.60101169     0.38900
O157        O  0.14633427  0.44433666  0.30663894    -0.81000
O158        O  0.14555842  0.34800148  0.26991448    -0.65700
O159        O  0.12856868  0.40547626  0.28542285    -1.12300
C160        C  0.13532101  0.38567827  0.41577425     1.05900
O161        O  0.12070421  0.34007052  0.31071772    -0.78900
O162        O  0.10004007  0.36338484  0.36090497    -0.66500
Ni163      Ni  0.14251216  0.42819563  0.26051232     1.34900
C164        C  0.09079184  0.38048810  0.35210972     0.84600
O165        O  0.13310328  0.37939418  0.22221972    -0.79500
O166        O  0.13916708  0.41420084  0.21233937    -0.89700
C167        C  0.13509297  0.33421902  0.28810681     0.84200
O168        O  0.17109258  0.41817933  0.26319439    -0.67900
O169        O  0.13555513  0.36651438  0.40418959    -0.87200
C170        C  0.17841399  0.39946453  0.26107276     0.85000
C171        C  0.13530532  0.39544134  0.20042825     1.06600
H172        H  0.15601911  0.37639980  0.33552536     0.38400
O173        O  0.14103435  0.37649108  0.32985824    -1.09900
O174        O  0.10082986  0.39691959  0.34157981    -0.66500
Ni175      Ni  0.13057312  0.40414340  0.33944896     1.26300
O176        O  0.16708436  0.38313947  0.26720362    -0.66800
O177        O  0.13269098  0.40166513  0.39393450    -0.79000
C178        C  0.13248095  0.44766964  0.33241168     0.84400
O179        O  0.12156558  0.43256663  0.34569320    -0.66200
Ni180      Ni  0.12850044  0.35362371  0.35683400     1.27400
Ni181      Ni  0.13746091  0.37717418  0.27581926     1.26100
H182        H  0.11382518  0.40646723  0.27837118     0.38900
O183        O  0.14486556  0.43982489  0.80998689    -0.81000
O184        O  0.14869285  0.34548649  0.76864558    -0.65700
O185        O  0.12704888  0.40153453  0.78706547    -1.12300
C186        C  0.13127842  0.37950676  0.91585824     1.05900
O187        O  0.12209407  0.33604926  0.80455778    -0.78900
O188        O  0.09782761  0.35770210  0.85216459    -0.66500
Ni189      Ni  0.13790045  0.42588913  0.76310085     1.34900
C190        C  0.08902387  0.37563188  0.84888744     0.84600
O191        O  0.13672110  0.37823013  0.72095670    -0.79500
O192        O  0.13151031  0.41354257  0.71516985    -0.89700
C193        C  0.13793287  0.33088382  0.78453512     0.84200
O194        O  0.16661107  0.41717719  0.75639934    -0.67900
O195        O  0.13017484  0.36062437  0.90274608    -0.87200
C196        C  0.17662849  0.39985067  0.76006809     0.85000
C197        C  0.13390808  0.39506372  0.70100194     1.06600
H198        H  0.15455935  0.37190098  0.83745764     0.38400
O199        O  0.13984841  0.37225518  0.82997137    -1.09900
O200        O  0.09947782  0.39260312  0.84387760    -0.66500
Ni201      Ni  0.12920743  0.39971383  0.84105925     1.26300
O202        O  0.16788334  0.38303844  0.77270029    -0.66800
O203        O  0.13147773  0.39609215  0.89496770    -0.79000
C204        C  0.13127098  0.44355809  0.83587767     0.84400
O205        O  0.12031482  0.42842647  0.84924730    -0.66200
Ni206      Ni  0.12652392  0.34861827  0.85307490     1.27400
Ni207      Ni  0.13851966  0.37431330  0.77552321     1.26100
H208        H  0.11223725  0.40103802  0.78032975     0.38900
O209        O  0.16569034  0.63077748  0.45187365    -0.81000
O210        O  0.07404137  0.63226140  0.40521476    -0.65700
O211        O  0.13033385  0.65051595  0.42608685    -1.12300
C212        C  0.10814280  0.64209150  0.55466841     1.05900
O213        O  0.06138215  0.65462070  0.44775234    -0.78900
O214        O  0.08520704  0.67642938  0.49981739    -0.66500
Ni215      Ni  0.15385913  0.63668063  0.40344566     1.34900
C216        C  0.10271505  0.68627497  0.49718718     0.84600
O217        O  0.10700536  0.64355420  0.35995801    -0.79500
O218        O  0.14254470  0.64149041  0.35402783    -0.89700
C219        C  0.05845044  0.64202999  0.41995667     0.84200
O220        O  0.14399993  0.60836807  0.40307576    -0.67900
O221        O  0.08928381  0.64113334  0.54168078    -0.87200
C222        C  0.12591629  0.60003114  0.40652198     0.85000
C223        C  0.12403001  0.64316440  0.33985493     1.06600
H224        H  0.10098252  0.62248081  0.47402751     0.38400
O225        O  0.10061905  0.63742602  0.46816093    -1.09900
O226        O  0.11971312  0.67743702  0.48534374    -0.66500
Ni227      Ni  0.12811020  0.64805289  0.48012407     1.26300
O228        O  0.10913722  0.61085862  0.41067218    -0.66800
O229        O  0.12460041  0.64485476  0.53395993    -0.79000
C230        C  0.17135921  0.64600005  0.47262901     0.84400
O231        O  0.15705251  0.65744777  0.48777921    -0.66200
Ni232      Ni  0.07639890  0.64770051  0.49386202     1.27400
Ni233      Ni  0.10274552  0.64063201  0.41413176     1.26100
H234        H  0.13113572  0.66534102  0.41937274     0.38900
O235        O  0.16743761  0.63314898  0.94613504    -0.81000
O236        O  0.07257722  0.62969323  0.90914818    -0.65700
O237        O  0.12894374  0.64923616  0.92424549    -1.12300
C238        C  0.11087039  0.63990109  0.05484143     1.05900
O239        O  0.06014508  0.65105005  0.95356440    -0.78900
O240        O  0.08496279  0.67325943  0.00452197    -0.66500
Ni241      Ni  0.15198306  0.63523960  0.89980212     1.34900
C242        C  0.10174453  0.68402618  0.99912557     0.84600
O243        O  0.10319262  0.64277770  0.86134848    -0.79500
O244        O  0.13795159  0.63659575  0.85173537    -0.89700
C245        C  0.05710369  0.63903155  0.92497357     0.84200
O246        O  0.14319925  0.60667406  0.90703971    -0.67900
O247        O  0.09182128  0.63740390  0.04357184    -0.87200
C248        C  0.12503807  0.59818315  0.90726588     0.85000
C249        C  0.11924328  0.64016221  0.83955737     1.06600
H250        H  0.10236159  0.61999642  0.97454161     0.38400
O251        O  0.10100885  0.63494965  0.96921843    -1.09900
O252        O  0.11824344  0.67615489  0.98346660    -0.66500
Ni253      Ni  0.12818683  0.64724406  0.97843289     1.26300
O254        O  0.10809033  0.60905277  0.90867710    -0.66800
O255        O  0.12638467  0.64440483  0.03276686    -0.79000
C256        C  0.17143977  0.64941979  0.96573525     0.84400
O257        O  0.15641090  0.65885258  0.98292860    -0.66200
Ni258      Ni  0.07714270  0.64415911  0.99760778     1.27400
Ni259      Ni  0.10118215  0.63874200  0.91529144     1.26100
H260        H  0.12935343  0.66399311  0.91694695     0.38900
O261        O  0.16932199  0.88283145  0.16910273    -0.81000
O262        O  0.07673376  0.88242654  0.22096748    -0.65700
O263        O  0.13347678  0.86539534  0.19791146    -1.12300
C264        C  0.10882834  0.87393879  0.07038639     1.05900
O265        O  0.06584566  0.85860532  0.17971769    -0.78900
O266        O  0.08782306  0.83962642  0.12157659    -0.66500
Ni267      Ni  0.15713393  0.87989302  0.21844360     1.34900
C268        C  0.10497322  0.82930295  0.12534312     0.84600
O269        O  0.11056771  0.87260500  0.26500035    -0.79500
O270        O  0.14578012  0.87789869  0.26896458    -0.89700
C271        C  0.06196508  0.87093412  0.20751442     0.84200
O272        O  0.14724562  0.90819287  0.21420538    -0.67900
O273        O  0.09047191  0.87645645  0.08527020    -0.87200
C274        C  0.12895754  0.91642300  0.21549749     0.85000
C275        C  0.12758261  0.87520755  0.28427834     1.06600
H276        H  0.10381200  0.89303026  0.15106151     0.38400
O277        O  0.10331291  0.87810775  0.15710166    -1.09900
O278        O  0.12136933  0.83735889  0.14075776    -0.66500
Ni279      Ni  0.13027719  0.86681267  0.14363665     1.26300
O280        O  0.11212517  0.90528449  0.21484547    -0.66800
O281        O  0.12557848  0.86947472  0.08944284    -0.79000
C282        C  0.17374285  0.86641193  0.15013423     0.84400
O283        O  0.15867679  0.85620793  0.13482767    -0.66200
Ni284      Ni  0.07883004  0.86782973  0.13299118     1.27400
Ni285      Ni  0.10588665  0.87518980  0.21105844     1.26100
H286        H  0.13458393  0.85070314  0.20540448     0.38900
O287        O  0.16768274  0.88313093  0.68476291    -0.81000
O288        O  0.07371536  0.88424887  0.71348452    -0.65700
O289        O  0.13015330  0.86417792  0.70102174    -1.12300
C290        C  0.11540468  0.87727386  0.57031629     1.05900
O291        O  0.06310779  0.86247400  0.66837569    -0.78900
O292        O  0.08893990  0.84201352  0.61758259    -0.66500
Ni293      Ni  0.15271126  0.87553985  0.72985760     1.34900
C294        C  0.10578915  0.83132263  0.62252417     0.84600
O295        O  0.10336429  0.87107986  0.76324532    -0.79500
O296        O  0.13836049  0.86856300  0.77604475    -0.89700
C297        C  0.05899711  0.87405423  0.69713305     0.84200
O298        O  0.14370381  0.90422321  0.73469697    -0.67900
O299        O  0.09599715  0.87860956  0.58065329    -0.87200
C300        C  0.12657134  0.91387487  0.72758793     0.85000
C301        C  0.11890305  0.86864907  0.78618654     1.06600
H302        H  0.10468652  0.89445473  0.65059204     0.38400
O303        O  0.10354094  0.87942241  0.65527820    -1.09900
O304        O  0.12232673  0.83901921  0.63812670    -0.66500
Ni305      Ni  0.13119233  0.86809768  0.64704691     1.26300
O306        O  0.11010832  0.90451704  0.71559120    -0.66800
O307        O  0.13068499  0.87274386  0.59283565    -0.79000
C308        C  0.17392040  0.86854331  0.66280916     0.84400
O309        O  0.16024296  0.85822025  0.64380778    -0.66200
Ni310      Ni  0.08049277  0.87067902  0.62541822     1.27400
Ni311      Ni  0.10250820  0.87512855  0.70893926     1.26100
H312        H  0.12971569  0.84915448  0.70627779     0.38900
O313        O  0.64002219  0.56908021  0.09257805    -0.81000
O314        O  0.64774967  0.66478873  0.11824978    -0.65700
O315        O  0.62323985  0.60978668  0.10379905    -1.12300
C316        C  0.63597770  0.62573947  0.97423496     1.05900
O317        O  0.62396938  0.67514944  0.07732592    -0.78900
O318        O  0.59979744  0.65166186  0.03201776    -0.66500
Ni319      Ni  0.63035244  0.58636005  0.13461024     1.34900
C320        C  0.59046146  0.63391038  0.03367017     0.84600
O321        O  0.63086013  0.63568462  0.16745793    -0.79500
O322        O  0.62105124  0.60182707  0.17857648    -0.89700
C323        C  0.63933121  0.67950939  0.09883999     0.84200
O324        O  0.65885674  0.59395090  0.14679553    -0.67900
O325        O  0.63355171  0.64494677  0.98487686    -0.87200
C326        C  0.67041617  0.61010329  0.14088143     0.85000
C327        C  0.62472941  0.62077549  0.18960604     1.06600
H328        H  0.65527102  0.63606182  0.05452011     0.38400
O329        O  0.64018935  0.63640068  0.05957885    -1.09900
O330        O  0.60030711  0.61667968  0.04003521    -0.66500
Ni331      Ni  0.62934322  0.60882503  0.05048736     1.26300
O332        O  0.66405928  0.62608360  0.12196535    -0.66800
O333        O  0.63548128  0.60985457  0.99688888    -0.79000
C334        C  0.62973270  0.56513432  0.06233870     0.84400
O335        O  0.62029615  0.58000229  0.04482872    -0.66200
Ni336      Ni  0.62893289  0.65952340  0.03182790     1.27400
Ni337      Ni  0.63577559  0.63671678  0.11340919     1.26100
H338        H  0.60814969  0.61164445  0.10702465     0.38900
O339        O  0.64095752  0.57170899  0.57923325    -0.81000
O340        O  0.64463961  0.66499202  0.62397702    -0.65700
O341        O  0.62266261  0.60972185  0.60273857    -1.12300
C342        C  0.62696354  0.63395856  0.47508035     1.05900
O343        O  0.61816368  0.67584009  0.58932102    -0.78900
O344        O  0.59321467  0.65433829  0.54257050    -0.66500
Ni345      Ni  0.63333970  0.58513418  0.62643507     1.34900
C346        C  0.58477760  0.63615396  0.54296859     0.84600
O347        O  0.63210036  0.63214398  0.66992150    -0.79500
O348        O  0.62640302  0.59690267  0.67490880    -0.89700
C349        C  0.63432830  0.68007558  0.60894848     0.84200
O350        O  0.66201373  0.59372383  0.63415031    -0.67900
O351        O  0.62478144  0.65234570  0.48984652    -0.87200
C352        C  0.67212600  0.61100697  0.63049154     0.85000
C353        C  0.62904525  0.61525092  0.68947225     1.06600
H354        H  0.65029861  0.64050342  0.55381991     0.38400
O355        O  0.63557999  0.63975215  0.56137632    -1.09900
O356        O  0.59560079  0.61918179  0.54520748    -0.66500
Ni357      Ni  0.62543696  0.61236220  0.54869821     1.26300
O358        O  0.66346784  0.62779485  0.61770292    -0.66800
O359        O  0.62828445  0.61691668  0.49477544    -0.79000
C360        C  0.62804815  0.56839638  0.55223841     0.84400
O361        O  0.61715605  0.58363462  0.53906290    -0.66200
Ni362      Ni  0.62181493  0.66368208  0.54014807     1.27400
Ni363      Ni  0.63411641  0.63667842  0.61563092     1.26100
H364        H  0.60777484  0.61021058  0.60916617     0.38900
O365        O  0.84983368  0.57035231  0.30097898    -0.81000
O366        O  0.84324153  0.66505537  0.26676853    -0.65700
O367        O  0.86672184  0.60972500  0.28128186    -1.12300
C368        C  0.86419897  0.63032587  0.41047415     1.05900
O369        O  0.87071417  0.67527971  0.29956110    -0.78900
O370        O  0.89705243  0.65242425  0.34154379    -0.66500
Ni371      Ni  0.85642461  0.58572634  0.25518174     1.34900
C372        C  0.90545182  0.63420536  0.34043300     0.84600
O373        O  0.85554188  0.63405137  0.21744319    -0.79500
O374        O  0.86254335  0.59938452  0.20786321    -0.89700
C375        C  0.85408112  0.67984156  0.28144573     0.84200
O376        O  0.82744516  0.59391396  0.25018909    -0.67900
O377        O  0.86703199  0.64899324  0.39722705    -0.87200
C378        C  0.81682128  0.61055496  0.25725517     0.85000
C379        C  0.85970893  0.61827526  0.19581834     1.06600
H380        H  0.83954676  0.63900056  0.33479272     0.38400
O381        O  0.85406893  0.63838898  0.32606274    -1.09900
O382        O  0.89446911  0.61737119  0.33858073    -0.66500
Ni383      Ni  0.86456777  0.61074985  0.33548479     1.26300
O384        O  0.82527227  0.62720014  0.27104537    -0.66800
O385        O  0.86214771  0.61380935  0.38964254    -0.79000
C386        C  0.86287437  0.56682250  0.32771654     0.84400
O387        O  0.87328766  0.58198758  0.34212945    -0.66200
Ni388      Ni  0.86856354  0.66169617  0.34780862     1.27400
Ni389      Ni  0.85440745  0.63677875  0.27183373     1.26100
H390        H  0.88150219  0.61081309  0.27433743     0.38900
O391        O  0.84872254  0.56983934  0.80314414    -0.81000
O392        O  0.84605176  0.66531713  0.76409684    -0.65700
O393        O  0.86663553  0.60888146  0.78282293    -1.12300
C394        C  0.86174964  0.63141621  0.91128771     1.05900
O395        O  0.87287173  0.67364944  0.79941185    -0.78900
O396        O  0.89657748  0.65158968  0.84641914    -0.66500
Ni397      Ni  0.85636917  0.58475799  0.75714668     1.34900
C398        C  0.90459391  0.63323259  0.84464474     0.84600
O399        O  0.85867161  0.63291497  0.71701034    -0.79500
O400        O  0.86345161  0.59772600  0.70953556    -0.89700
C401        C  0.85673534  0.67942538  0.78125015     0.84200
O402        O  0.82781100  0.59366165  0.74994513    -0.67900
O403        O  0.86425055  0.64999009  0.89757583    -0.87200
C404        C  0.81783077  0.61108697  0.75302877     0.85000
C405        C  0.86203360  0.61653741  0.69630191     1.06600
H406        H  0.83902797  0.63946352  0.83263029     0.38400
O407        O  0.85378998  0.63845916  0.82544299    -1.09900
O408        O  0.89335656  0.61667982  0.84101912    -0.66500
Ni409      Ni  0.86342082  0.61070032  0.83688622     1.26300
O410        O  0.82627834  0.62785302  0.76657465    -0.66800
O411        O  0.86030055  0.61462060  0.89092541    -0.79000
C412        C  0.86106498  0.56651893  0.83106472     0.84400
O413        O  0.87135792  0.58178739  0.84549431    -0.66200
Ni414      Ni  0.86820672  0.66166010  0.84802613     1.27400
Ni415      Ni  0.85577878  0.63636489  0.77108950     1.26100
H416        H  0.88158647  0.60931756  0.77691793     0.38900
O417        O  0.64501016  0.93931165  0.05779661    -0.81000
O418        O  0.64761836  0.84450848  0.01930566    -0.65700
O419        O  0.62653217  0.90083388  0.03650240    -1.12300
C420        C  0.62876188  0.87902757  0.16534945     1.05900
O421        O  0.62052005  0.83482960  0.05381513    -0.78900
O422        O  0.59558467  0.85805728  0.09870177    -0.66500
Ni423      Ni  0.63789000  0.92471556  0.01145750     1.34900
C424        C  0.58723313  0.87630784  0.09727882     0.84600
O425        O  0.63589231  0.87660651  0.97145946    -0.79500
O426        O  0.63131426  0.91183373  0.96384599    -0.89700
C427        C  0.63650137  0.82982656  0.03393011     0.84200
O428        O  0.66655165  0.91550208  0.00519335    -0.67900
O429        O  0.62662141  0.86037025  0.15172071    -0.87200
C430        C  0.67629007  0.89806459  0.00972499     0.85000
C431        C  0.63299513  0.89301312  0.95069431     1.06600
H432        H  0.65303746  0.87061959  0.08801462     0.38400
O433        O  0.63842031  0.87143795  0.08003892    -1.09900
O434        O  0.59826994  0.89307993  0.09363856    -0.66500
Ni435      Ni  0.62839217  0.89929756  0.09063342     1.26300
O436        O  0.66720559  0.88155574  0.02292754    -0.66800
O437        O  0.63030835  0.89573522  0.14482523    -0.79000
C438        C  0.63180764  0.94336147  0.08425302     0.84400
O439        O  0.62055327  0.92850106  0.09810044    -0.66200
Ni440      Ni  0.62397901  0.84814593  0.10214637     1.27400
Ni441      Ni  0.63762226  0.87331850  0.02575128     1.26100
H442        H  0.61173091  0.90050322  0.02966136     0.38900
O443        O  0.64744901  0.94123164  0.55588215    -0.81000
O444        O  0.64430815  0.84355107  0.52051608    -0.65700
O445        O  0.62927903  0.90186948  0.53601257    -1.12300
C446        C  0.63706537  0.88164302  0.66608902     1.05900
O447        O  0.61986132  0.83657644  0.56248749    -0.78900
O448        O  0.60131289  0.86082406  0.61580716    -0.66500
Ni449      Ni  0.64399879  0.92394734  0.51063280     1.34900
C450        C  0.59224039  0.87806886  0.60713037     0.84600
O451        O  0.63196193  0.87519225  0.47299146    -0.79500
O452        O  0.64106099  0.90924889  0.46285645    -0.89700
C453        C  0.63391248  0.83008467  0.53966425     0.84200
O454        O  0.67215945  0.91306133  0.51583409    -0.67900
O455        O  0.63797040  0.86251182  0.65447702    -0.87200
C456        C  0.67862886  0.89418290  0.51088484     0.85000
C457        C  0.63572072  0.89083693  0.45098072     1.06600
H458        H  0.65663764  0.87221434  0.58480795     0.38400
O459        O  0.64156887  0.87256195  0.58003806    -1.09900
O460        O  0.60203285  0.89373411  0.59282609    -0.66500
Ni461      Ni  0.63184233  0.90049145  0.58995584     1.26300
O462        O  0.66668882  0.87816752  0.51566003    -0.66800
O463        O  0.63418785  0.89764047  0.64432136    -0.79000
C464        C  0.63437219  0.94456602  0.58301868     0.84400
O465        O  0.62361698  0.92942049  0.59694799    -0.66200
Ni466      Ni  0.62920074  0.84991180  0.60796124     1.27400
Ni467      Ni  0.63709912  0.87309482  0.52630500     1.26100
H468        H  0.61452229  0.90344021  0.52938847     0.38900
O469        O  0.84824707  0.93962438  0.32373829    -0.81000
O470        O  0.85076081  0.84454752  0.36330312    -0.65700
O471        O  0.86791855  0.90206215  0.34740793    -1.12300
C472        C  0.86401158  0.88125376  0.21740602     1.05900
O473        O  0.87644144  0.83612488  0.32447953    -0.78900
O474        O  0.89823171  0.85941870  0.27528223    -0.66500
Ni475      Ni  0.85348600  0.92493398  0.37089633     1.34900
C476        C  0.90726088  0.87688355  0.28242528     0.84600
O477        O  0.86127118  0.87668553  0.41155575    -0.79500
O478        O  0.85780042  0.91201301  0.41960893    -0.89700
C479        C  0.86136357  0.83049427  0.34584068     0.84200
O480        O  0.82516713  0.91433669  0.37069510    -0.67900
O481        O  0.86384654  0.86212426  0.22925166    -0.87200
C482        C  0.81765511  0.89570761  0.36999498     0.85000
C483        C  0.85988942  0.89320127  0.43261874     1.06600
H484        H  0.84206813  0.87233082  0.29621317     0.38400
O485        O  0.85688792  0.87262084  0.30300497    -1.09900
O486        O  0.89700038  0.89355283  0.29177464    -0.66500
Ni487      Ni  0.86692541  0.90048301  0.29328232     1.26300
O488        O  0.82891261  0.87950871  0.36237672    -0.66800
O489        O  0.86562078  0.89746406  0.23903171    -0.79000
C490        C  0.86211661  0.94396608  0.29860796     0.84400
O491        O  0.87477358  0.92967999  0.28678446    -0.66200
Ni492      Ni  0.86982762  0.84949446  0.27745070     1.27400
Ni493      Ni  0.85885847  0.87378494  0.35735664     1.26100
H494        H  0.88254874  0.90310229  0.35514259     0.38900
O495        O  0.84865504  0.93904873  0.82632385    -0.81000
O496        O  0.84882460  0.84531711  0.86659959    -0.65700
O497        O  0.86854754  0.90157840  0.84632515    -1.12300
C498        C  0.86140681  0.87883180  0.71820020     1.05900
O499        O  0.87478286  0.83605696  0.82903271    -0.78900
O500        O  0.89720540  0.85849511  0.77966987    -0.66500
Ni501      Ni  0.85804954  0.92551121  0.87220514     1.34900
C502        C  0.90565805  0.87662509  0.78187974     0.84600
O503        O  0.86153043  0.87800239  0.91270201    -0.79500
O504        O  0.86680595  0.91324345  0.91928841    -0.89700
C505        C  0.85939644  0.83084345  0.85000564     0.84200
O506        O  0.83000305  0.91603896  0.88319481    -0.67900
O507        O  0.86360864  0.86013669  0.73159023    -0.87200
C508        C  0.82026065  0.89854841  0.87996082     0.85000
C509        C  0.86518099  0.89451089  0.93291082     1.06600
H510        H  0.84054327  0.87109080  0.79838113     0.38400
O511        O  0.85541944  0.87190945  0.80457605    -1.09900
O512        O  0.89485070  0.89345329  0.78700513    -0.66500
Ni513      Ni  0.86487088  0.89967691  0.79245885     1.26300
O514        O  0.82853936  0.88227887  0.86426690    -0.66800
O515        O  0.86129871  0.89567746  0.73862229    -0.79000
C516        C  0.86101138  0.94353338  0.79888694     0.84400
O517        O  0.87210223  0.92891624  0.78367543    -0.66200
Ni518      Ni  0.86886009  0.84846172  0.78088324     1.27400
Ni519      Ni  0.85811903  0.87417209  0.85870474     1.26100
H520        H  0.88355334  0.90133731  0.85157829     0.38900
O521        O  0.66400634  0.13189011  0.20838087    -0.81000
O522        O  0.57259606  0.12900024  0.15876438    -0.65700
O523        O  0.62782755  0.14933598  0.18173172    -1.12300
C524        C  0.60338460  0.14058020  0.30914329     1.05900
O525        O  0.55971114  0.15268538  0.19859920    -0.78900
O526        O  0.58099614  0.17435766  0.25377922    -0.66500
Ni527      Ni  0.65225570  0.13676686  0.15951857     1.34900
C528        C  0.59835360  0.18447186  0.25299137     0.84600
O529        O  0.60557776  0.14134042  0.11496976    -0.79500
O530        O  0.64119495  0.14095393  0.10955068    -0.89700
C531        C  0.55706927  0.13982674  0.17119295     0.84200
O532        O  0.64388653  0.10783543  0.15864198    -0.67900
O533        O  0.58483450  0.13916437  0.29482371    -0.87200
C534        C  0.62622180  0.09844403  0.16080426     0.85000
C535        C  0.62264760  0.14193333  0.09518088     1.06600
H536        H  0.59863310  0.12038592  0.22884135     0.38400
O537        O  0.59802148  0.13528042  0.22261374    -1.09900
O538        O  0.61555361  0.17624261  0.24071245    -0.66500
Ni539      Ni  0.62478120  0.14696704  0.23584932     1.26300
O540        O  0.60885296  0.10846097  0.16531610    -0.66800
O541        O  0.62029657  0.14364270  0.28963361    -0.79000
C542        C  0.66813153  0.14770084  0.22895296     0.84400
O543        O  0.65297956  0.15763591  0.24474748    -0.66200
Ni544      Ni  0.57310658  0.14555832  0.24604549     1.27400
Ni545      Ni  0.60092324  0.13817458  0.16875328     1.26100
H546        H  0.62794730  0.16418325  0.17498529     0.38900
O547        O  0.66502824  0.13626567  0.69919516    -0.81000
O548        O  0.57092528  0.12807285  0.66678643    -0.65700
O549        O  0.62654408  0.15025105  0.67840780    -1.12300
C550        C  0.61098346  0.14017805  0.81021182     1.05900
O551        O  0.55917947  0.14968157  0.71151434    -0.78900
O552        O  0.58305622  0.17145172  0.76360081    -0.66500
Ni553      Ni  0.65000478  0.13805670  0.65272763     1.34900
C554        C  0.59854002  0.18352433  0.75554870     0.84600
O555        O  0.60052260  0.14154265  0.61668714    -0.79500
O556        O  0.63567927  0.13963362  0.60505212    -0.89700
C557        C  0.55578674  0.13818598  0.68240005     0.84200
O558        O  0.64300033  0.10882947  0.65780980    -0.67900
O559        O  0.59227298  0.13527215  0.79948475    -0.87200
C560        C  0.62559259  0.09896743  0.66058407     0.85000
C561        C  0.61648707  0.14132666  0.59406008     1.06600
H562        H  0.60289282  0.11996487  0.73054570     0.38400
O563        O  0.60040615  0.13474849  0.72506196    -1.09900
O564        O  0.61478026  0.17709510  0.73709392    -0.66500
Ni565      Ni  0.62676204  0.14882436  0.73291932     1.26300
O566        O  0.60799977  0.10859734  0.66501495    -0.66800
O567        O  0.62563033  0.14650205  0.78757566    -0.79000
C568        C  0.66919717  0.15324406  0.71663124     0.84400
O569        O  0.65451286  0.16201795  0.73589387    -0.66200
Ni570      Ni  0.57658648  0.14228722  0.75466598     1.27400
Ni571      Ni  0.59943734  0.13802617  0.67102568     1.26100
H572        H  0.62579235  0.16495719  0.67083539     0.38900
O573        O  0.66635522  0.38032254  0.43169609    -0.81000
O574        O  0.57292979  0.38334421  0.47362779    -0.65700
O575        O  0.62912129  0.36365216  0.45743308    -1.12300
C576        C  0.61009232  0.37096370  0.32710145     1.05900
O577        O  0.56117753  0.36080091  0.43078155    -0.78900
O578        O  0.58476065  0.33905536  0.37859218    -0.66500
Ni579      Ni  0.65239477  0.37787092  0.47966652     1.34900
C580        C  0.60110343  0.32786846  0.38507091     0.84600
O581        O  0.60420075  0.37149674  0.52110702    -0.79500
O582        O  0.63935822  0.37615490  0.52879355    -0.89700
C583        C  0.55780959  0.37306630  0.45888949     0.84200
O584        O  0.64345727  0.40650454  0.47409671    -0.67900
O585        O  0.59127767  0.37470065  0.33896848    -0.87200
C586        C  0.62531167  0.41501309  0.47320189     0.85000
C587        C  0.62064198  0.37347751  0.54201711     1.06600
H588        H  0.60254165  0.39200967  0.40664088     0.38400
O589        O  0.60101375  0.37718144  0.41285059    -1.09900
O590        O  0.61760943  0.33545949  0.40089760    -0.66500
Ni591      Ni  0.62785590  0.36442724  0.40326147     1.26300
O592        O  0.60840034  0.40417286  0.47136673    -0.66800
O593        O  0.62550547  0.36596706  0.34885851    -0.79000
C594        C  0.67089988  0.36398521  0.41252617     0.84400
O595        O  0.65607040  0.35301438  0.39822406    -0.66200
Ni596      Ni  0.57704962  0.36801520  0.38569812     1.27400
Ni597      Ni  0.60156736  0.37440361  0.46696344     1.26100
H598        H  0.62955908  0.34906170  0.46570682     0.38900
O599        O  0.66988214  0.37754200  0.92981878    -0.81000
O600        O  0.57642584  0.38047966  0.97690644    -0.65700
O601        O  0.63246199  0.36116986  0.95569758    -1.12300
C602        C  0.61125353  0.37316833  0.82743869     1.05900
O603        O  0.56429129  0.35953808  0.93198809    -0.78900
O604        O  0.58647551  0.33971191  0.87619724    -0.66500
Ni605      Ni  0.65625618  0.37445751  0.97814991     1.34900
C606        C  0.60255234  0.32808245  0.88206291     0.84600
O607        O  0.60864169  0.36679175  0.02138249    -0.79500
O608        O  0.64379403  0.37182815  0.02779233    -0.89700
C609        C  0.56102641  0.37108756  0.96098630     0.84200
O610        O  0.64751258  0.40333004  0.97475357    -0.67900
O611        O  0.59277003  0.37690761  0.84080968    -0.87200
C612        C  0.62939815  0.41194798  0.97675633     0.85000
C613        C  0.62537743  0.36835413  0.04172901     1.06600
H614        H  0.60536063  0.39150847  0.90965090     0.38400
O615        O  0.60375363  0.37649976  0.91419806    -1.09900
O616        O  0.61944873  0.33513732  0.89732473    -0.66500
Ni617      Ni  0.63023565  0.36378085  0.90177886     1.26300
O618        O  0.61239648  0.40119116  0.97542836    -0.66800
O619        O  0.62692167  0.36721665  0.84781546    -0.79000
C620        C  0.67349127  0.36152567  0.90911296     0.84400
O621        O  0.65804839  0.35187376  0.89391083    -0.66200
Ni622      Ni  0.57929750  0.36847271  0.88715794     1.27400
Ni623      Ni  0.60510318  0.37170595  0.96785636     1.26100
H624        H  0.63294857  0.34631314  0.96235959     0.38900
O625        O  0.32492874  0.62898410  0.42318388    -0.81000
O626        O  0.41804615  0.62570705  0.46973765    -0.65700
O627        O  0.36201511  0.64490027  0.44920569    -1.12300
C628        C  0.38493766  0.63563966  0.32053787     1.05900
O629        O  0.43007571  0.64864331  0.42778377    -0.78900
O630        O  0.40811910  0.66903815  0.37262684    -0.66500
Ni631      Ni  0.33809898  0.63144715  0.47165527     1.34900
C632        C  0.39144000  0.67995077  0.37740312     0.84600
O633        O  0.38552748  0.63727637  0.51461451    -0.79500
O634        O  0.35024916  0.63301731  0.52168027    -0.89700
C635        C  0.43307603  0.63693899  0.45664169     0.84200
O636        O  0.34692345  0.60280431  0.46666770    -0.67900
O637        O  0.40350308  0.63292667  0.33406192    -0.87200
C638        C  0.36499099  0.59406058  0.46710407     0.85000
C639        C  0.36891603  0.63514452  0.53519538     1.06600
H640        H  0.39028658  0.61594474  0.40108691     0.38400
O641        O  0.39132557  0.63086149  0.40693254    -1.09900
O642        O  0.37453355  0.67206903  0.39147869    -0.66500
Ni643      Ni  0.36460033  0.64302996  0.39485238     1.26300
O644        O  0.38210016  0.60462674  0.46549402    -0.66800
O645        O  0.36849522  0.64006497  0.34057540    -0.79000
C646        C  0.32130193  0.64537989  0.40370001     0.84400
O647        O  0.33663384  0.65465666  0.38727837    -0.66200
Ni648      Ni  0.41597304  0.64034367  0.38168696     1.27400
Ni649      Ni  0.38936218  0.63422864  0.46083457     1.26100
H650        H  0.36155824  0.65967217  0.45648263     0.38900
O651        O  0.32804534  0.63092241  0.92642786    -0.81000
O652        O  0.42184071  0.62739225  0.96618879    -0.65700
O653        O  0.36558973  0.64775144  0.94972406    -1.12300
C654        C  0.38528745  0.64019703  0.81935222     1.05900
O655        O  0.43349043  0.65072355  0.92450213    -0.78900
O656        O  0.41018943  0.67344216  0.87485974    -0.66500
Ni657      Ni  0.34191335  0.63495619  0.97387246     1.34900
C658        C  0.39319918  0.68382898  0.87972955     0.84600
O659        O  0.39016621  0.63905289  0.01396581    -0.79500
O660        O  0.35477733  0.63819578  0.02266394    -0.89700
C661        C  0.43698640  0.63804598  0.95183911     0.84200
O662        O  0.35030089  0.60605808  0.97146259    -0.67900
O663        O  0.40436014  0.63906512  0.83126286    -0.87200
C664        C  0.36789506  0.59672385  0.96705430     0.85000
C665        C  0.37367070  0.63930401  0.03536852     1.06600
H666        H  0.39309991  0.61929276  0.89855867     0.38400
O667        O  0.39398021  0.63411986  0.90517008    -1.09900
O668        O  0.37605325  0.67520899  0.89124762    -0.66500
Ni669      Ni  0.36670465  0.64600929  0.89537030     1.26300
O670        O  0.38522706  0.60676335  0.96247603    -0.66800
O671        O  0.36913780  0.64308635  0.84093286    -0.79000
C672        C  0.32332285  0.64672314  0.90615504     0.84400
O673        O  0.33814646  0.65697870  0.88996296    -0.66200
Ni674      Ni  0.41801769  0.64445402  0.87883427     1.27400
Ni675      Ni  0.39301836  0.63650681  0.95948404     1.26100
H676        H  0.36564408  0.66252458  0.95706452     0.38900
O677        O  0.32488227  0.87612709  0.20769876    -0.81000
O678        O  0.41828545  0.88272375  0.16683836    -0.65700
O679        O  0.36274580  0.86080920  0.18391676    -1.12300
C680        C  0.38185979  0.87115036  0.31366375     1.05900
O681        O  0.43047507  0.86021192  0.20932885    -0.78900
O682        O  0.40759937  0.83807432  0.26303473    -0.66500
Ni683      Ni  0.33870043  0.87279864  0.15998684     1.34900
C684        C  0.39114574  0.82682212  0.25782224     0.84600
O685        O  0.38721166  0.86951358  0.11955727    -0.79500
O686        O  0.35177949  0.87007657  0.11128225    -0.89700
C687        C  0.43378421  0.87305396  0.18201032     0.84200
O688        O  0.34618426  0.90199021  0.16148901    -0.67900
O689        O  0.40068361  0.87422901  0.30135433    -0.87200
C690        C  0.36369721  0.91170429  0.16337390     0.85000
C691        C  0.37071716  0.86964917  0.09840588     1.06600
H692        H  0.38867792  0.89080691  0.23364833     0.38400
O693        O  0.39038204  0.87593992  0.22783442    -1.09900
O694        O  0.37443783  0.83419557  0.24248241    -0.66500
Ni695      Ni  0.36378423  0.86287344  0.23828190     1.26300
O696        O  0.38117899  0.90207484  0.16868832    -0.66800
O697        O  0.36621667  0.86584788  0.29259941    -0.79000
C698        C  0.32085455  0.85967811  0.22675220     0.84400
O699        O  0.33589316  0.85058642  0.24420288    -0.66200
Ni700      Ni  0.41470911  0.86724784  0.25468603     1.27400
Ni701      Ni  0.38980372  0.87272202  0.17375992     1.26100
H702        H  0.36323543  0.84601909  0.17681452     0.38900
O703        O  0.33026946  0.88175350  0.71062032    -0.81000
O704        O  0.42347305  0.88156182  0.66605022    -0.65700
O705        O  0.36683865  0.86380692  0.68502401    -1.12300
C706        C  0.38741090  0.87451314  0.81399434     1.05900
O707        O  0.43471922  0.85961386  0.71037742    -0.78900
O708        O  0.41126787  0.84073460  0.76624783    -0.66500
Ni709      Ni  0.34370880  0.87815067  0.66253321     1.34900
C710        C  0.39479115  0.82971290  0.76030934     0.84600
O711        O  0.39139553  0.86960703  0.62002622    -0.79500
O712        O  0.35635457  0.87544256  0.61326940    -0.89700
C713        C  0.43836918  0.87128058  0.68164549     0.84200
O714        O  0.35342314  0.90644886  0.66702519    -0.67900
O715        O  0.40606095  0.87793171  0.80109266    -0.87200
C716        C  0.37175581  0.91449198  0.66646418     0.85000
C717        C  0.37481920  0.87193641  0.59951965     1.06600
H718        H  0.39438893  0.89280343  0.73267028     0.38400
O719        O  0.39561349  0.87780037  0.72769030    -1.09900
O720        O  0.37855559  0.83697967  0.74317235    -0.66500
Ni721      Ni  0.36863306  0.86596109  0.73906875     1.26300
O722        O  0.38846007  0.90332045  0.66759852    -0.66800
O723        O  0.37173653  0.86893799  0.79320895    -0.79000
C724        C  0.32544247  0.86572604  0.73020250     0.84400
O725        O  0.34016829  0.85510141  0.74579612    -0.66200
Ni726      Ni  0.41965775  0.86904199  0.75503900     1.27400
Ni727      Ni  0.39460098  0.87358621  0.67391623     1.26100
H728        H  0.36594396  0.84904028  0.67792467     0.38900
O729        O  0.34877269  0.06902785  0.05129978    -0.81000
O730        O  0.34788083  0.16450969  0.01363021    -0.65700
O731        O  0.36773117  0.10781259  0.03244305    -1.12300
C732        C  0.36098470  0.12974558  0.16077997     1.05900
O733        O  0.37418889  0.17332341  0.05034577    -0.78900
O734        O  0.39709430  0.14990712  0.09637830    -0.66500
Ni735      Ni  0.35760734  0.08387936  0.00610813     1.34900
C736        C  0.40491841  0.13147255  0.09461309     0.84600
O737        O  0.36025458  0.13200532  0.96620077    -0.79500
O738        O  0.36564852  0.09681235  0.95916070    -0.89700
C739        C  0.35868707  0.17882330  0.03009040     0.84200
O740        O  0.32936793  0.09326516  0.99769841    -0.67900
O741        O  0.36440077  0.14834430  0.14772445    -0.87200
C742        C  0.31936948  0.11062486  0.00150690     0.85000
C743        C  0.36340151  0.11547496  0.94570974     1.06600
H744        H  0.33987867  0.13865025  0.08133701     0.38400
O745        O  0.35471421  0.13746132  0.07473834    -1.09900
O746        O  0.39361183  0.11490506  0.09200421    -0.66500
Ni747      Ni  0.36365383  0.10944126  0.08629917     1.26300
O748        O  0.32779109  0.12721105  0.01568565    -0.66800
O749        O  0.35961887  0.11316451  0.13995551    -0.79000
C750        C  0.36052525  0.06529413  0.07977274     0.84400
O751        O  0.37084542  0.08028595  0.09508172    -0.66200
Ni752      Ni  0.36892708  0.16042669  0.09836371     1.27400
Ni753      Ni  0.35725685  0.13545723  0.02055728     1.26100
H754        H  0.38276171  0.10813828  0.02725551     0.38900
O755        O  0.34985043  0.06811881  0.55131725    -0.81000
O756        O  0.34522869  0.16335587  0.51476592    -0.65700
O757        O  0.36680453  0.10746628  0.53046727    -1.12300
C758        C  0.36102951  0.12797090  0.66038910     1.05900
O759        O  0.37118518  0.17312034  0.55157109    -0.78900
O760        O  0.39523357  0.15094146  0.59871778    -0.66500
Ni761      Ni  0.35558662  0.08356804  0.50497085     1.34900
C762        C  0.40437857  0.13326663  0.59403333     0.84600
O763        O  0.35843397  0.13241363  0.46650508    -0.79500
O764        O  0.36074419  0.09703368  0.45704159    -0.89700
C765        C  0.35542112  0.17791672  0.53136881     0.84200
O766        O  0.32656454  0.09206551  0.50076339    -0.67900
O767        O  0.36204604  0.14698273  0.64803419    -0.87200
C768        C  0.31701409  0.10975346  0.50367620     0.85000
C769        C  0.36015244  0.11614681  0.44505706     1.06600
H770        H  0.33870454  0.13612998  0.58209309     0.38400
O771        O  0.35350690  0.13612172  0.57489112    -1.09900
O772        O  0.39422310  0.11624349  0.58762822    -0.66500
Ni773      Ni  0.36452074  0.10872414  0.58463294     1.26300
O774        O  0.32606488  0.12644522  0.51599185    -0.66800
O775        O  0.36194968  0.11156205  0.63898851    -0.79000
C776        C  0.36298929  0.06499751  0.57814756     0.84400
O777        O  0.37377723  0.08025432  0.59129149    -0.66200
Ni778      Ni  0.36635031  0.15967407  0.59921953     1.27400
Ni779      Ni  0.35552149  0.13487776  0.52059603     1.26100
H780        H  0.38163128  0.10793511  0.52362034     0.38900
O781        O  0.13991064  0.07118535  0.33553024    -0.81000
O782        O  0.14162533  0.16815936  0.36459792    -0.65700
O783        O  0.12245356  0.11130498  0.34968031    -1.12300
C784        C  0.13643867  0.12868504  0.21976593     1.05900
O785        O  0.11800903  0.17572811  0.32133644    -0.78900
O786        O  0.09920156  0.15236914  0.26790245    -0.66500
Ni787      Ni  0.13173652  0.08813874  0.37911133     1.34900
C788        C  0.08938980  0.13529493  0.27483060     0.84600
O789        O  0.12650088  0.13805061  0.41314056    -0.79500
O790        O  0.12364734  0.10295287  0.42464297    -0.89700
C791        C  0.13164053  0.18182514  0.34512488     0.84200
O792        O  0.16046411  0.09684089  0.38655719    -0.67900
O793        O  0.13648611  0.14801054  0.23061863    -0.87200
C794        C  0.17040533  0.11432867  0.38399833     0.85000
C795        C  0.12311300  0.12231988  0.43530741     1.06600
H796        H  0.15341722  0.13854080  0.30195782     0.38400
O797        O  0.13826169  0.13883679  0.30589385    -1.09900
O798        O  0.09852745  0.11898399  0.28817477    -0.66500
Ni799      Ni  0.12781898  0.11130596  0.29613484     1.26300
O800        O  0.16182239  0.13113344  0.37085620    -0.66800
O801        O  0.13304605  0.11298000  0.24207676    -0.79000
C802        C  0.12890937  0.06768614  0.30586699     0.84400
O803        O  0.11901638  0.08266821  0.28967717    -0.66200
Ni804      Ni  0.12753903  0.16160009  0.27653596     1.27400
Ni805      Ni  0.13272311  0.13912164  0.35955342     1.26100
H806        H  0.10731123  0.11185167  0.35364989     0.38900
O807        O  0.14361705  0.07157941  0.82482448    -0.81000
O808        O  0.14985800  0.16472937  0.86590237    -0.65700
O809        O  0.12585971  0.10982074  0.84878344    -1.12300
C810        C  0.12558979  0.13199265  0.72026193     1.05900
O811        O  0.12303690  0.17646272  0.83283768    -0.78900
O812        O  0.09549302  0.15419155  0.79267900    -0.66500
Ni813      Ni  0.13654502  0.08522118  0.87217588     1.34900
C814        C  0.08664953  0.13619601  0.79388535     0.84600
O815        O  0.13751883  0.13241832  0.91427348    -0.79500
O816        O  0.13021223  0.09748141  0.92053907    -0.89700
C817        C  0.13984314  0.18011315  0.85109439     0.84200
O818        O  0.16524068  0.09354189  0.87920679    -0.67900
O819        O  0.12385143  0.15056436  0.73449491    -0.87200
C820        C  0.17565373  0.11049200  0.87402808     0.85000
C821        C  0.13375964  0.11584824  0.93450149     1.06600
H822        H  0.15259368  0.13947684  0.79601767     0.38400
O823        O  0.13812152  0.13907434  0.80511021    -1.09900
O824        O  0.09721137  0.11900737  0.79408183    -0.66500
Ni825      Ni  0.12703841  0.11168523  0.79464878     1.26300
O826        O  0.16739836  0.12696027  0.85928307    -0.66800
O827        O  0.12820229  0.11529045  0.74034417    -0.79000
C828        C  0.13006972  0.06812054  0.79894554     0.84400
O829        O  0.11817464  0.08296802  0.78726369    -0.66200
Ni830      Ni  0.12392545  0.16292307  0.78437655     1.27400
Ni831      Ni  0.13827100  0.13657902  0.85958196     1.26100
H832        H  0.11120495  0.11074772  0.85662239     0.38900
C833        C  0.10643221  0.11415503  0.53760822    -0.27700
C834        C  0.11949620  0.12872398  0.55623864     0.01900
C835        C  0.13191078  0.14283037  0.53466013     0.29900
C836        C  0.13192402  0.14154739  0.49495182    -0.19500
C837        C  0.11961106  0.12628284  0.47625740    -0.28900
C838        C  0.10627393  0.11299537  0.49792806     0.44000
C839        C  0.12030826  0.12897283  0.59821251     0.05200
O840        O  0.14512320  0.15696134  0.55225518    -0.57500
H841        H  0.14245100  0.15173790  0.47889019     0.18100
O842        O  0.09337124  0.09848712  0.48058887    -0.64200
H843        H  0.09649934  0.10350670  0.55392215     0.16600
C844        C  0.11227772  0.14631050  0.61863235     0.28800
C845        C  0.11415839  0.14693065  0.65809147    -0.25100
C846        C  0.12383322  0.13025366  0.67822890    -0.24300
C847        C  0.13133339  0.11252203  0.65767811     0.40300
C848        C  0.12948559  0.11198709  0.61797769    -0.26800
O849        O  0.10255657  0.16278114  0.60021381    -0.58700
H850        H  0.10781846  0.16056197  0.67298756     0.15900
O851        O  0.14071782  0.09578244  0.67586032    -0.60100
H852        H  0.13560129  0.09845854  0.60247596     0.14300
H853        H  0.07974163  0.10599186  0.47667012     0.46200
H854        H  0.08753841  0.15842317  0.59766636     0.41600
H855        H  0.15594167  0.09953213  0.67743034     0.45000
H856        H  0.13764085  0.17076703  0.55114475     0.36500
C857        C  0.14952905  0.13715591  0.11578656    -0.27700
C858        C  0.13747858  0.12117930  0.09864070     0.01900
C859        C  0.12698804  0.10626539  0.12182425     0.29900
C860        C  0.12796406  0.10800911  0.16141749    -0.19500
C861        C  0.13910803  0.12469399  0.17857139    -0.28900
C862        C  0.15042373  0.13898493  0.15529838     0.44000
C863        C  0.13615303  0.12010085  0.05661559     0.05200
O864        O  0.11511165  0.09037011  0.10607705    -0.57500
H865        H  0.11904213  0.09692715  0.17865570     0.18100
O866        O  0.16209855  0.15508788  0.17084165    -0.64200
H867        H  0.15820624  0.14836555  0.09843219     0.16600
C868        C  0.12951736  0.13765657  0.03488361     0.28800
C869        C  0.12869025  0.13622601  0.99514046    -0.25100
C870        C  0.13433484  0.11737133  0.97652213    -0.24300
C871        C  0.14110829  0.09987784  0.99848956     0.40300
C872        C  0.14199395  0.10138614  0.03800003    -0.26800
O873        O  0.12306352  0.15599486  0.05235851    -0.58700
H874        H  0.12340889  0.14980242  0.97892425     0.15900
O875        O  0.14796806  0.08151975  0.98154142    -0.60100
H876        H  0.14759804  0.08791826  0.05417917     0.14300
H877        H  0.17638421  0.14897430  0.17495778     0.46200
H878        H  0.13484243  0.16616740  0.04854591     0.41600
H879        H  0.13595715  0.07148094  0.98388800     0.45000
H880        H  0.10081328  0.09656807  0.10252279     0.36500
C881        C  0.22629093  0.13275758  0.41311732    -0.27700
C882        C  0.23322078  0.11539366  0.43482548     0.01900
C883        C  0.21965396  0.09789777  0.43895817     0.29900
C884        C  0.19974116  0.09774879  0.42151717    -0.19500
C885        C  0.19260623  0.11493038  0.39938190    -0.28900
C886        C  0.20623217  0.13262889  0.39542542     0.44000
C887        C  0.25484566  0.11486823  0.45203345     0.05200
O888        O  0.22545230  0.08110180  0.46134163    -0.57500
H889        H  0.18967246  0.08410312  0.42614481     0.18100
O890        O  0.20011983  0.14997563  0.37477286    -0.64200
H891        H  0.23655679  0.14635813  0.40953507     0.16600
C892        C  0.26987175  0.09993555  0.43940543     0.28800
C893        C  0.28946328  0.09800065  0.45766484    -0.25100
C894        C  0.29494256  0.11113223  0.48841412    -0.24300
C895        C  0.28006387  0.12647481  0.50059226     0.40300
C896        C  0.26019882  0.12820360  0.48252499    -0.26800
O897        O  0.26557157  0.08716588  0.40891110    -0.58700
H898        H  0.30073018  0.08652720  0.44677208     0.15900
O899        O  0.28466902  0.13976057  0.53019195    -0.60100
H900        H  0.24882016  0.13975412  0.49272490     0.14300
H901        H  0.20472328  0.14692723  0.34840635     0.46200
H902        H  0.27099772  0.09500657  0.38652585     0.41600
H903        H  0.28046810  0.13185460  0.55332435     0.45000
H904        H  0.22971550  0.06973082  0.44345388     0.36500
C905        C  0.35012430  0.13887360  0.76455900    -0.27700
C906        C  0.36074645  0.12199147  0.78194889     0.01900
C907        C  0.37005857  0.10615630  0.75905964     0.29900
C908        C  0.36922703  0.10773155  0.71945197    -0.19500
C909        C  0.35938479  0.12513387  0.70201798    -0.28900
C910        C  0.34947638  0.14059912  0.72501355     0.44000
C911        C  0.36162477  0.12077201  0.82393686     0.05200
O912        O  0.38042234  0.08931070  0.77513220    -0.57500
H913        H  0.37700603  0.09572376  0.70238241     0.18100
O914        O  0.33863636  0.15719456  0.70908086    -0.64200
H915        H  0.34227026  0.15078768  0.78171837     0.16600
C916        C  0.36973180  0.13756080  0.84597961     0.28800
C917        C  0.37049562  0.13578710  0.88567829    -0.25100
C918        C  0.36319831  0.11738822  0.90383230    -0.24300
C919        C  0.35457950  0.10087699  0.88158758     0.40300
C920        C  0.35399425  0.10261882  0.84216130    -0.26800
O921        O  0.37765555  0.15539712  0.82885783    -0.58700
H922        H  0.37696784  0.14870470  0.90220758     0.15900
O923        O  0.34611184  0.08311256  0.89813818    -0.60100
H924        H  0.34720623  0.08981948  0.82572404     0.14300
H925        H  0.34811209  0.16963205  0.71167118     0.46200
H926        H  0.36663536  0.16642825  0.83253403     0.41600
H927        H  0.33103254  0.08666292  0.90297615     0.45000
H928        H  0.39504919  0.09438861  0.77973540     0.36500
C929        C  0.37150414  0.13705010  0.34618786    -0.27700
C930        C  0.35855375  0.12369292  0.32435497     0.01900
C931        C  0.34603232  0.10832371  0.34259284     0.29900
C932        C  0.34704353  0.10599238  0.38185277    -0.19500
C933        C  0.36008627  0.11915942  0.40371147    -0.28900
C934        C  0.37222286  0.13494542  0.38574428     0.44000
C935        C  0.35857702  0.12531160  0.28251559     0.05200
O936        O  0.33265646  0.09555906  0.32226112    -0.57500
H937        H  0.33726869  0.09406077  0.39540925     0.18100
O938        O  0.38510003  0.14804314  0.40641139    -0.64200
H939        H  0.38134157  0.14885418  0.33247573     0.16600
C940        C  0.35346690  0.14440309  0.26420625     0.28800
C941        C  0.35369543  0.14544030  0.22455818    -0.25100
C942        C  0.35908511  0.12759614  0.20252837    -0.24300
C943        C  0.36394263  0.10841247  0.22109004     0.40300
C944        C  0.36362623  0.10740207  0.26068928    -0.26800
O945        O  0.34753658  0.16189251  0.28480723    -0.58700
H946        H  0.34970579  0.16032478  0.21104490     0.15900
O947        O  0.36956804  0.09067370  0.20098172    -0.60100
H948        H  0.36770363  0.09262005  0.27449153     0.14300
H949        H  0.39860575  0.14016270  0.40919916     0.46200
H950        H  0.36017816  0.17120427  0.28507025     0.41600
H951        H  0.38511711  0.09179138  0.19735751     0.45000
H952        H  0.31960556  0.10407855  0.31866582     0.36500
C953        C  0.26382320  0.12907309  0.97228509    -0.27700
C954        C  0.25810033  0.11286560  0.94692264     0.01900
C955        C  0.27225615  0.09601272  0.94071796     0.29900
C956        C  0.29154847  0.09532428  0.95989825    -0.19500
C957        C  0.29750751  0.11138874  0.98548884    -0.28900
C958        C  0.28334222  0.12843102  0.99155283     0.44000
C959        C  0.23705608  0.11281416  0.92803818     0.05200
O960        O  0.26774135  0.08059751  0.91447024    -0.57500
H961        H  0.30214592  0.08226456  0.95365254     0.18100
O962        O  0.28840374  0.14460138  0.01584222    -0.64200
H963        H  0.25302898  0.14212171  0.97745960     0.16600
C964        C  0.22319769  0.09565767  0.93349072     0.28800
C965        C  0.20406793  0.09472540  0.91390467    -0.25100
C966        C  0.19771241  0.11110019  0.88925694    -0.24300
C967        C  0.21148033  0.12856369  0.88424503     0.40300
C968        C  0.23099113  0.12927955  0.90351255    -0.26800
O969        O  0.22804820  0.07978605  0.95858742    -0.58700
H970        H  0.19379179  0.08133390  0.91941478     0.15900
O971        O  0.20593851  0.14518855  0.86130986    -0.60100
H972        H  0.24147292  0.14263936  0.89909994     0.14300
H973        H  0.28362145  0.13973446  0.04120290     0.46200
H974        H  0.22305371  0.08498114  0.98362438     0.41600
H975        H  0.21114651  0.14124535  0.83569228     0.45000
H976        H  0.26560576  0.06739099  0.92923036     0.36500
C977        C  0.39068143  0.96942781  0.63778799    -0.27700
C978        C  0.37221238  0.98134878  0.64409720     0.01900
C979        C  0.35485047  0.97180786  0.66241443     0.29900
C980        C  0.35545711  0.95030081  0.67149760    -0.19500
C981        C  0.37331676  0.93785711  0.66276714    -0.28900
C982        C  0.39135535  0.94780962  0.64698065     0.44000
C983        C  0.37015136  0.00289279  0.62787251     0.05200
O984        O  0.33680322  0.98319070  0.67002172    -0.57500
H985        H  0.34153690  0.94318352  0.68425277     0.18100
O986        O  0.40929297  0.93642738  0.63853929    -0.64200
H987        H  0.40418171  0.97658395  0.62373188     0.16600
C988        C  0.38400861  0.01939192  0.63774585     0.28800
C989        C  0.38137857  0.03956549  0.62171786    -0.25100
C990        C  0.36515750  0.04356006  0.59527953    -0.24300
C991        C  0.35137501  0.02683075  0.58543238     0.40300
C992        C  0.35400219  0.00679714  0.60159677    -0.26800
O993        O  0.39966710  0.01613438  0.66397261    -0.58700
H994        H  0.39217577  0.05206753  0.62992248     0.15900
O995        O  0.33531657  0.02972963  0.55986756    -0.60100
H996        H  0.34337001  0.99413999  0.59339816     0.14300
H997        H  0.40721858  0.93122114  0.61227118     0.46200
H998        H  0.41288131  0.01440971  0.64897724     0.41600
H999        H  0.32278662  0.03373727  0.57535274     0.45000
H1000       H  0.33950302  0.99027210  0.69463848     0.36500
C1001       C  0.34486863  0.96810608  0.14321704    -0.27700
C1002       C  0.36399638  0.97852876  0.13555837     0.01900
C1003       C  0.38315842  0.96738241  0.13999522     0.29900
C1004       C  0.38294487  0.94593737  0.15074008    -0.19500
C1005       C  0.36371470  0.93515463  0.15712125    -0.28900
C1006       C  0.34456386  0.94676633  0.15407581     0.44000
C1007       C  0.36355819  0.00070744  0.12129596     0.05200
O1008       O  0.40215249  0.97710087  0.13263324    -0.57500
H1009       H  0.39788801  0.93756428  0.15271503     0.18100
O1010       O  0.32531282  0.93735802  0.16054915    -0.64200
H1011       H  0.32999968  0.97653712  0.14030107     0.16600
C1012       C  0.35360271  0.00555898  0.08674741     0.28800
C1013       C  0.35273780  0.02654291  0.07389770    -0.25100
C1014       C  0.36164646  0.04322271  0.09504009    -0.24300
C1015       C  0.37176984  0.03825804  0.12964856     0.40300
C1016       C  0.37262678  0.01717640  0.14247184    -0.26800
O1017       O  0.34531793  0.98973411  0.06463892    -0.58700
H1018       H  0.34516082  0.02967842  0.04696497     0.15900
O1019       O  0.38045671  0.05385900  0.15167971    -0.60100
H1020       H  0.38020496  0.01369666  0.16927428     0.14300
H1021       H  0.32267481  0.93906829  0.18812510     0.46200
H1022       H  0.32983882  0.99007870  0.06951064     0.41600
H1023       H  0.39559455  0.05444133  0.14413143     0.45000
H1024       H  0.40477599  0.97481056  0.10518477     0.36500
C1025       C  0.35919244  0.87776050  0.99380117    -0.27700
C1026       C  0.37842651  0.87194503  0.97699455     0.01900
C1027       C  0.39535704  0.86540779  0.00017582     0.29900
C1028       C  0.39275802  0.86460442  0.03965901    -0.19500
C1029       C  0.37328387  0.87005520  0.05654935    -0.28900
C1030       C  0.35643291  0.87676522  0.03297698     0.44000
C1031       C  0.38046308  0.87299477  0.93523426     0.05200
O1032       O  0.41445280  0.85969264  0.98453863    -0.57500
H1033       H  0.40596333  0.85957894  0.05701455     0.18100
O1034       O  0.33741674  0.88334559  0.04787994    -0.64200
H1035       H  0.34622543  0.88337037  0.97642356     0.16600
C1036       C  0.36587646  0.86248539  0.91171679     0.28800
C1037       C  0.36781927  0.86389572  0.87229779    -0.25100
C1038       C  0.38421760  0.87572441  0.85557595    -0.24300
C1039       C  0.39854515  0.88663478  0.87929471     0.40300
C1040       C  0.39659268  0.88517220  0.91873390    -0.26800
O1041       O  0.35036629  0.84986298  0.92705840    -0.58700
H1042       H  0.35686942  0.85502972  0.85483677     0.15900
O1043       O  0.41469378  0.89855865  0.86435213    -0.60100
H1044       H  0.40766411  0.89367616  0.93652506     0.14300
H1045       H  0.32773049  0.87109455  0.04494168     0.46200
H1046       H  0.33694682  0.85779801  0.92353882     0.41600
H1047       H  0.40870307  0.91299458  0.86143806     0.45000
H1048       H  0.41279179  0.84461511  0.97722545     0.36500
C1049       C  0.39630141  0.87217970  0.49798306    -0.27700
C1050       C  0.37734981  0.87263107  0.47714124     0.01900
C1051       C  0.35792219  0.87219159  0.49669984     0.29900
C1052       C  0.35756988  0.87122651  0.53616654    -0.19500
C1053       C  0.37642800  0.87112953  0.55741723    -0.28900
C1054       C  0.39597820  0.87159561  0.53779871     0.44000
C1055       C  0.37778914  0.87313573  0.43506238     0.05200
O1056       O  0.33907740  0.87301375  0.47750279    -0.57500
H1057       H  0.34225515  0.87091458  0.55011552     0.18100
O1058       O  0.41482602  0.87155827  0.55701301    -0.64200
H1059       H  0.41141944  0.87220437  0.48334701     0.16600
C1060       C  0.38961198  0.88847378  0.41519942     0.28800
C1061       C  0.39005315  0.88823819  0.37548929    -0.25100
C1062       C  0.37863997  0.87297403  0.35500134    -0.24300
C1063       C  0.36633791  0.85801823  0.37485105     0.40300
C1064       C  0.36607234  0.85812151  0.41450913    -0.26800
O1065       O  0.40025554  0.90409615  0.43432829    -0.58700
H1066       H  0.39954288  0.89990672  0.36063365     0.15900
O1067       O  0.35524474  0.84266172  0.35587321    -0.60100
H1068       H  0.35703181  0.84608834  0.42931050     0.14300
H1069       H  0.41845318  0.88671513  0.56055698     0.46200
H1070       H  0.41547050  0.90033479  0.43213518     0.41600
H1071       H  0.36539297  0.83080728  0.35232186     0.45000
H1072       H  0.33609133  0.88831961  0.47404644     0.36500
C1073       C  0.41191372  0.73718243  0.84181124    -0.27700
C1074       C  0.39268542  0.74759852  0.83489865     0.01900
C1075       C  0.37366743  0.73775599  0.84629421     0.29900
C1076       C  0.37405257  0.71750898  0.86287896    -0.19500
C1077       C  0.39330264  0.70668131  0.86858584    -0.28900
C1078       C  0.41240057  0.71707710  0.85849969     0.44000
C1079       C  0.39287705  0.76862290  0.81562608     0.05200
O1080       O  0.35457760  0.74766592  0.84089632    -0.57500
H1081       H  0.35914724  0.71000260  0.87007609     0.18100
O1082       O  0.43173809  0.70771735  0.86445730    -0.64200
H1083       H  0.42673082  0.74442351  0.83325302     0.16600
C1084       C  0.40580541  0.78509920  0.82916633     0.28800
C1085       C  0.40646741  0.80451645  0.81013931    -0.25100
C1086       C  0.39438836  0.80813314  0.77727451    -0.24300
C1087       C  0.38141037  0.79166877  0.76365097     0.40300
C1088       C  0.38076311  0.77210074  0.78274324    -0.26800
O1089       O  0.41708365  0.78270881  0.86210396    -0.58700
H1090       H  0.41614962  0.81703903  0.82194801     0.15900
O1091       O  0.36938936  0.79444246  0.73174041    -0.60100
H1092       H  0.37095853  0.75950506  0.77156515     0.14300
H1093       H  0.43621328  0.70216618  0.83934108     0.46200
H1094       H  0.43216466  0.78196992  0.85419383     0.41600
H1095       H  0.37899231  0.79105959  0.71024277     0.45000
H1096       H  0.35221290  0.75618353  0.86417132     0.36500
C1097       C  0.39119969  0.62613390  0.63405986    -0.27700
C1098       C  0.37456297  0.63357707  0.65699739     0.01900
C1099       C  0.35599604  0.64120653  0.63980802     0.29900
C1100       C  0.35442304  0.64174957  0.60019559    -0.19500
C1101       C  0.37121387  0.63471456  0.57705686    -0.28900
C1102       C  0.38959897  0.62651980  0.59441070     0.44000
C1103       C  0.37726022  0.63461537  0.69869177     0.05200
O1104       O  0.33975219  0.64916962  0.66151045    -0.57500
H1105       H  0.34010871  0.64800656  0.58754871     0.18100
O1106       O  0.40566757  0.61797399  0.57298568    -0.64200
H1107       H  0.40548190  0.61998409  0.64699825     0.16600
C1108       C  0.36402327  0.62317526  0.72361993     0.28800
C1109       C  0.36635537  0.62539113  0.76299783    -0.25100
C1110       C  0.38216655  0.63855053  0.77794105    -0.24300
C1111       C  0.39549305  0.64983746  0.75288951     0.40300
C1112       C  0.39302420  0.64775486  0.71367768    -0.26800
O1113       O  0.34894805  0.60963043  0.70977537    -0.58700
H1114       H  0.35614431  0.61645763  0.78186686     0.15900
O1115       O  0.41077267  0.66326100  0.76648322    -0.60100
H1116       H  0.40322707  0.65672981  0.69483861     0.14300
H1117       H  0.41644751  0.62932945  0.57082433     0.46200
H1118       H  0.35656394  0.59615842  0.70475698     0.41600
H1119       H  0.40346730  0.67701359  0.77044280     0.45000
H1120       H  0.32873259  0.63798417  0.66159385     0.36500
C1121       C  0.36079377  0.64351599  0.14076399    -0.27700
C1122       C  0.38000214  0.63752713  0.15722175     0.01900
C1123       C  0.39760160  0.63334346  0.13370132     0.29900
C1124       C  0.39560861  0.63455998  0.09410003    -0.19500
C1125       C  0.37620152  0.64018026  0.07735722    -0.28900
C1126       C  0.35883390  0.64514406  0.10139313     0.44000
C1127       C  0.38153961  0.63645028  0.19908442     0.05200
O1128       O  0.41651762  0.62711616  0.14916081    -0.57500
H1129       H  0.40914880  0.63056345  0.07651782     0.18100
O1130       O  0.33973294  0.65149627  0.08685372    -0.64200
H1131       H  0.34726582  0.64718456  0.15862879     0.16600
C1132       C  0.39443148  0.65081525  0.21883855     0.28800
C1133       C  0.39540219  0.65004472  0.25837513    -0.25100
C1134       C  0.38321024  0.63542177  0.27894384    -0.24300
C1135       C  0.37012867  0.62112001  0.25941772     0.40300
C1136       C  0.36930340  0.62173327  0.21961584    -0.26800
O1137       O  0.40578780  0.66598059  0.19976234    -0.58700
H1138       H  0.40541805  0.66124935  0.27317635     0.15900
O1139       O  0.35837885  0.60639929  0.27883921    -0.60100
H1140       H  0.35918915  0.61068388  0.20470382     0.14300
H1141       H  0.34088313  0.66709251  0.08412807     0.46200
H1142       H  0.39623961  0.67844481  0.19836651     0.41600
H1143       H  0.36797485  0.59409600  0.28223741     0.45000
H1144       H  0.42583364  0.63972580  0.14753382     0.36500
C1145       C  0.40888037  0.73110917  0.32842545    -0.27700
C1146       C  0.39034031  0.74334321  0.32931641     0.01900
C1147       C  0.37236287  0.73510070  0.34808128     0.29900
C1148       C  0.37306846  0.71486668  0.36488971    -0.19500
C1149       C  0.39162966  0.70243768  0.36361283    -0.28900
C1150       C  0.40970641  0.71102467  0.34518594     0.44000
C1151       C  0.39028706  0.76464752  0.31069814     0.05200
O1152       O  0.35398402  0.74664784  0.35011796    -0.57500
H1153       H  0.35888639  0.70877113  0.37837837     0.18100
O1154       O  0.42835477  0.69990359  0.34281914    -0.64200
H1155       H  0.42282731  0.73698798  0.31386568     0.16600
C1156       C  0.40608069  0.77963049  0.31922505     0.28800
C1157       C  0.40648861  0.79924835  0.30063364    -0.25100
C1158       C  0.39124443  0.80467560  0.27320297    -0.24300
C1159       C  0.37537268  0.78962193  0.26462784     0.40300
C1160       C  0.37502555  0.76985637  0.28323956    -0.26800
O1161       O  0.42056909  0.77567199  0.34727748    -0.58700
H1162       H  0.41853549  0.81054721  0.30883287     0.15900
O1163       O  0.35994957  0.79408196  0.23854355    -0.60100
H1164       H  0.36286869  0.75847832  0.27594313     0.14300
H1165       H  0.42815811  0.69304781  0.31749787     0.46200
H1166       H  0.43426367  0.77342452  0.33398019     0.41600
H1167       H  0.36539976  0.78836137  0.21418929     0.45000
H1168       H  0.35582629  0.75619942  0.37219382     0.36500
C1169       C  0.59929804  0.36576047  0.64256408    -0.27700
C1170       C  0.61620737  0.37379476  0.66395966     0.01900
C1171       C  0.63423771  0.38158904  0.64528413     0.29900
C1172       C  0.63529190  0.38126951  0.60583212    -0.19500
C1173       C  0.61847178  0.37326319  0.58396681    -0.28900
C1174       C  0.60028804  0.36547836  0.60278330     0.44000
C1175       C  0.61514165  0.37408630  0.70579517     0.05200
O1176       O  0.65092484  0.38970107  0.66541352    -0.57500
H1177       H  0.64938855  0.38757943  0.59236893     0.18100
O1178       O  0.58379103  0.35688484  0.58281718    -0.64200
H1179       H  0.58540474  0.35949378  0.65677058     0.16600
C1180       C  0.59948651  0.38585407  0.72482556     0.28800
C1181       C  0.59904963  0.38625567  0.76446404    -0.25100
C1182       C  0.61403025  0.37485739  0.78579665    -0.24300
C1183       C  0.63004206  0.36345935  0.76648879     0.40300
C1184       C  0.63042959  0.36310596  0.72683350    -0.26800
O1185       O  0.58491859  0.39747217  0.70488155    -0.58700
H1186       H  0.58670544  0.39529183  0.77851815     0.15900
O1187       O  0.64468788  0.35166083  0.78589307    -0.60100
H1188       H  0.64257423  0.35398493  0.71237996     0.14300
H1189       H  0.57293820  0.36823220  0.58156144     0.46200
H1190       H  0.57185060  0.38876615  0.70485113     0.41600
H1191       H  0.65716284  0.36106242  0.78869030     0.45000
H1192       H  0.64725537  0.40477677  0.66993092     0.36500
C1193       C  0.60397909  0.38306363  0.22236467    -0.27700
C1194       C  0.61764564  0.36805303  0.20594717     0.01900
C1195       C  0.62986771  0.35497569  0.22985154     0.29900
C1196       C  0.62803652  0.35682990  0.26931280    -0.19500
C1197       C  0.61381008  0.37136499  0.28565953    -0.28900
C1198       C  0.60191456  0.38470536  0.26175926     0.44000
C1199       C  0.61944004  0.36666987  0.16396272     0.05200
O1200       O  0.64327276  0.33997794  0.21496846    -0.57500
H1201       H  0.63713766  0.34623830  0.28714215     0.18100
O1202       O  0.58813035  0.39937120  0.27657175    -0.64200
H1203       H  0.59491219  0.39367534  0.20455498     0.16600
C1204       C  0.60136628  0.36508427  0.14076298     0.28800
C1205       C  0.60350491  0.36506304  0.10112803    -0.25100
C1206       C  0.62355900  0.36664035  0.08381856    -0.24300
C1207       C  0.64168865  0.36742895  0.10739394     0.40300
C1208       C  0.63946545  0.36767758  0.14683525    -0.26800
O1209       O  0.58159100  0.36298976  0.15662185    -0.58700
H1210       H  0.58933386  0.36412156  0.08398954     0.15900
O1211       O  0.66175167  0.36845391  0.09243239    -0.60100
H1212       H  0.65353847  0.36907855  0.16414637     0.14300
H1213       H  0.59687488  0.41210654  0.28156178     0.46200
H1214       H  0.57435518  0.37670206  0.15201696     0.41600
H1215       H  0.66646297  0.35350891  0.09014569     0.45000
H1216       H  0.63445753  0.32710669  0.21181293     0.36500
C1217       C  0.46180520  0.15097960  0.60140963    -0.27700
C1218       C  0.47126221  0.13318430  0.61803231     0.01900
C1219       C  0.45920147  0.11464196  0.62299140     0.29900
C1220       C  0.43768296  0.11439380  0.61301024    -0.19500
C1221       C  0.42784336  0.13257598  0.59813072    -0.28900
C1222       C  0.44037388  0.15074214  0.59118634     0.44000
C1223       C  0.49305916  0.13477829  0.63334019     0.05200
O1224       O  0.46790427  0.09721847  0.64017667    -0.57500
H1225       H  0.42842953  0.10031320  0.61885410     0.18100
O1226       O  0.43170353  0.16862151  0.57547418    -0.64200
H1227       H  0.47096722  0.16530620  0.59724160     0.16600
C1228       C  0.51024282  0.12427960  0.61614387     0.28800
C1229       C  0.53051794  0.12553440  0.63224537    -0.25100
C1230       C  0.53409188  0.13729679  0.66561737    -0.24300
C1231       C  0.51670417  0.14799618  0.68246313     0.40300
C1232       C  0.49653557  0.14677597  0.66614699    -0.26800
O1233       O  0.50736724  0.11273171  0.58363012    -0.58700
H1234       H  0.54346576  0.11724184  0.61847660     0.15900
O1235       O  0.51912934  0.15978045  0.71483974    -0.60100
H1236       H  0.48341286  0.15498775  0.67957536     0.14300
H1237       H  0.43196856  0.16609482  0.54771428     0.46200
H1238       H  0.50987896  0.12286105  0.56259680     0.41600
H1239       H  0.51551678  0.15003517  0.73595088     0.45000
H1240       H  0.47348407  0.08838212  0.61913228     0.36500
C1241       C  0.61034021  0.24205191  0.77519800    -0.27700
C1242       C  0.59956199  0.24512816  0.80983612     0.01900
C1243       C  0.58770836  0.22820671  0.82493439     0.29900
C1244       C  0.58686953  0.20876865  0.80586759    -0.19500
C1245       C  0.59801709  0.20540622  0.77168099    -0.28900
C1246       C  0.60966568  0.22241493  0.75620792     0.44000
C1247       C  0.60058562  0.26592025  0.83012027     0.05200
O1248       O  0.57734529  0.23027138  0.85901374    -0.57500
H1249       H  0.57806674  0.19594624  0.81889855     0.18100
O1250       O  0.62047660  0.22005907  0.72267683    -0.64200
H1251       H  0.61929381  0.25494976  0.76277831     0.16600
C1252       C  0.62010193  0.27547685  0.83927121     0.28800
C1253       C  0.62058061  0.29515540  0.85797244    -0.25100
C1254       C  0.60173704  0.30576944  0.86793845    -0.24300
C1255       C  0.58220172  0.29583979  0.85964494     0.40300
C1256       C  0.58178550  0.27618102  0.84108126    -0.26800
O1257       O  0.63884789  0.26577873  0.82987116    -0.58700
H1258       H  0.63578601  0.30243868  0.86354886     0.15900
O1259       O  0.56334086  0.30512416  0.86978540    -0.60100
H1260       H  0.56660096  0.26910311  0.83455356     0.14300
H1261       H  0.61003774  0.22349499  0.70264626     0.46200
H1262       H  0.64163772  0.25568936  0.85082119     0.41600
H1263       H  0.55770419  0.31142052  0.84610455     0.45000
H1264       H  0.58796326  0.22641157  0.87849017     0.36500
C1265       C  0.49948272  0.15027524  0.14561572    -0.27700
C1266       C  0.49440881  0.13221084  0.12440177     0.01900
C1267       C  0.51032424  0.11717435  0.11666696     0.29900
C1268       C  0.53087524  0.12013863  0.13095394    -0.19500
C1269       C  0.53577670  0.13786853  0.15354009    -0.28900
C1270       C  0.51981777  0.15315232  0.16028665     0.44000
C1271       C  0.47227313  0.12956061  0.11121291     0.05200
O1272       O  0.50607471  0.09991387  0.09430639    -0.57500
H1273       H  0.54285745  0.10828360  0.12499025     0.18100
O1274       O  0.52395644  0.17121364  0.18060084    -0.64200
H1275       H  0.48743670  0.16209788  0.15146829     0.16600
C1276       C  0.45946012  0.11279139  0.12438027     0.28800
C1277       C  0.43763114  0.11276381  0.11679916    -0.25100
C1278       C  0.42828022  0.12953501  0.09667305    -0.24300
C1279       C  0.44139742  0.14554551  0.08152014     0.40300
C1280       C  0.46311758  0.14552935  0.08902469    -0.26800
O1281       O  0.46786184  0.09704226  0.14650416    -0.58700
H1282       H  0.42783893  0.10029454  0.12861177     0.15900
O1283       O  0.43303862  0.16169548  0.06026372    -0.60100
H1284       H  0.47278270  0.15845428  0.07851865     0.14300
H1285       H  0.51832780  0.16844116  0.20642776     0.46200
H1286       H  0.46690998  0.10243126  0.17287932     0.41600
H1287       H  0.43244274  0.15608745  0.03401230     0.45000
H1288       H  0.50600131  0.08759564  0.11175553     0.36500
C1289       C  0.63018352  0.15481486  0.90872437    -0.27700
C1290       C  0.61840767  0.14076598  0.93125158     0.01900
C1291       C  0.60548471  0.12554141  0.91374670     0.29900
C1292       C  0.60392087  0.12492968  0.87421899    -0.19500
C1293       C  0.61524404  0.13932417  0.85145920    -0.28900
C1294       C  0.62855912  0.15431238  0.86911206     0.44000
C1295       C  0.61963167  0.14205418  0.97304037     0.05200
O1296       O  0.59411367  0.11135077  0.93509213    -0.57500
H1297       H  0.59354051  0.11334497  0.86132352     0.18100
O1298       O  0.63926483  0.16917857  0.84813777    -0.64200
H1299       H  0.64017337  0.16661777  0.92198049     0.16600
C1300       C  0.63866011  0.13752706  0.99179704     0.28800
C1301       C  0.63943383  0.13808827  0.03136228    -0.25100
C1302       C  0.62130622  0.14303448  0.05312438    -0.24300
C1303       C  0.60229380  0.14801580  0.03407287     0.40300
C1304       C  0.60156092  0.14735648  0.99434961    -0.26800
O1305       O  0.65649025  0.13205175  0.97168399    -0.58700
H1306       H  0.65425718  0.13408130  0.04498104     0.15900
O1307       O  0.58430684  0.15338235  0.05380527    -0.60100
H1308       H  0.58683130  0.15099657  0.98007124     0.14300
H1309       H  0.62914182  0.18107654  0.84494698     0.46200
H1310       H  0.65595698  0.11639390  0.96950266     0.41600
H1311       H  0.58506678  0.16897492  0.05700888     0.45000
H1312       H  0.60420279  0.09977179  0.94102834     0.36500
C1313       C  0.62370795  0.13218542  0.40937703    -0.27700
C1314       C  0.60672156  0.14022659  0.43099528     0.01900
C1315       C  0.58881749  0.14828311  0.41223417     0.29900
C1316       C  0.58791253  0.14780232  0.37262555    -0.19500
C1317       C  0.60482347  0.13969554  0.35095311    -0.28900
C1318       C  0.62291457  0.13198411  0.36967849     0.44000
C1319       C  0.60840793  0.14111953  0.47293663     0.05200
O1320       O  0.57283111  0.15799856  0.43225264    -0.57500
H1321       H  0.57414412  0.15448655  0.35877349     0.18100
O1322       O  0.63991312  0.12431121  0.34957476    -0.64200
H1323       H  0.63769448  0.12609439  0.42338118     0.16600
C1324       C  0.59251643  0.13275571  0.49689485     0.28800
C1325       C  0.59474852  0.13384608  0.53639760    -0.25100
C1326       C  0.61303766  0.14260996  0.55260038    -0.24300
C1327       C  0.62885436  0.15104175  0.52848264     0.40300
C1328       C  0.62642709  0.15026754  0.48918364    -0.26800
O1329       O  0.57511215  0.12281271  0.48205834    -0.58700
H1330       H  0.58258347  0.12697913  0.55432431     0.15900
O1331       O  0.64693184  0.15991141  0.54296867    -0.60100
H1332       H  0.63874459  0.15686206  0.47125258     0.14300
H1333       H  0.63667927  0.10915342  0.34502617     0.46200
H1334       H  0.57976126  0.10807261  0.47691142     0.41600
H1335       H  0.64355396  0.17514342  0.54635430     0.45000
H1336       H  0.56009284  0.14908151  0.42836896     0.36500
C1337       C  0.58395012  0.23162198  0.31579554    -0.27700
C1338       C  0.60084023  0.24559532  0.30961411     0.01900
C1339       C  0.61678143  0.23973122  0.28341879     0.29900
C1340       C  0.61565794  0.22015861  0.26419943    -0.19500
C1341       C  0.59854234  0.20621725  0.27014062    -0.28900
C1342       C  0.58259435  0.21232749  0.29643749     0.44000
C1343       C  0.60107683  0.26632343  0.33022033     0.05200
O1344       O  0.63349706  0.25301364  0.27627774    -0.57500
H1345       H  0.62827426  0.21585160  0.24475603     0.18100
O1346       O  0.56613542  0.19903248  0.30537556    -0.64200
H1347       H  0.57174264  0.23557070  0.33631900     0.16600
C1348       C  0.58315712  0.27962247  0.32961618     0.28800
C1349       C  0.58305858  0.29870088  0.34976788    -0.25100
C1350       C  0.60090257  0.30557915  0.37031120    -0.24300
C1351       C  0.61882347  0.29210670  0.37137051     0.40300
C1352       C  0.61877549  0.27269967  0.35151152    -0.26800
O1353       O  0.56575268  0.27442521  0.30837801    -0.58700
H1354       H  0.56905277  0.30856293  0.34781009     0.15900
O1355       O  0.63674159  0.29798955  0.39050739    -0.60100
H1356       H  0.63263995  0.26260122  0.35274612     0.14300
H1357       H  0.55405919  0.20399950  0.28980952     0.46200
H1358       H  0.56846057  0.28064546  0.28299295     0.41600
H1359       H  0.63546725  0.29123192  0.41579542     0.45000
H1360       H  0.62842156  0.26280782  0.25628594     0.36500
C1361       C  0.85165209  0.90389150  0.53777454    -0.27700
C1362       C  0.86036731  0.88573844  0.55438183     0.01900
C1363       C  0.86861379  0.86967492  0.53069611     0.29900
C1364       C  0.86831177  0.87214086  0.49113660    -0.19500
C1365       C  0.86015488  0.89068013  0.47454070    -0.28900
C1366       C  0.85168899  0.90659374  0.49850458     0.44000
C1367       C  0.86059975  0.88396687  0.59640105     0.05200
O1368       O  0.87720457  0.85162093  0.54588134    -0.57500
H1369       H  0.87476604  0.85963642  0.47347571     0.18100
O1370       O  0.84260964  0.92457801  0.48392870    -0.64200
H1371       H  0.84460744  0.91609433  0.55539522     0.16600
C1372       C  0.86847456  0.90060986  0.61901971     0.28800
C1373       C  0.86792194  0.89903592  0.65861840    -0.25100
C1374       C  0.85979678  0.88089852  0.67644675    -0.24300
C1375       C  0.85184448  0.86425636  0.65375979     0.40300
C1376       C  0.85222602  0.86592716  0.61416910    -0.26800
O1377       O  0.87778149  0.91799207  0.60258879    -0.58700
H1378       H  0.87455810  0.91178404  0.67537277     0.15900
O1379       O  0.84371768  0.84622752  0.66991128    -0.60100
H1380       H  0.84576599  0.85314064  0.59729744     0.14300
H1381       H  0.85362686  0.93570220  0.48611883     0.46200
H1382       H  0.86783204  0.92990307  0.60717515     0.41600
H1383       H  0.82840647  0.84915993  0.67353341     0.45000
H1384       H  0.89245124  0.85483547  0.54928800     0.36500
C1385       C  0.86948070  0.87149140  0.03244262    -0.27700
C1386       C  0.86444640  0.88930798  0.05459179     0.01900
C1387       C  0.86048056  0.90877751  0.03666487     0.29900
C1388       C  0.86156656  0.91026324  0.99723719    -0.19500
C1389       C  0.86626381  0.89241187  0.97474001    -0.28900
C1390       C  0.87024705  0.87287167  0.99277855     0.44000
C1391       C  0.86361379  0.88761806  0.09640385     0.05200
O1392       O  0.85514176  0.92639696  0.05742499    -0.57500
H1393       H  0.85802982  0.92540109  0.98422791     0.18100
O1394       O  0.87540433  0.85518595  0.97208726    -0.64200
H1395       H  0.87290891  0.85647227  0.04596652     0.16600
C1396       C  0.85017693  0.87292336  0.11440173     0.28800
C1397       C  0.84996888  0.87141704  0.15399719    -0.25100
C1398       C  0.86295761  0.88453832  0.17610267    -0.24300
C1399       C  0.87611622  0.89949572  0.15808931     0.40300
C1400       C  0.87644134  0.90087085  0.11851936    -0.26800
O1401       O  0.83678112  0.86043677  0.09355350    -0.58700
H1402       H  0.83968827  0.85989989  0.16747818     0.15900
O1403       O  0.88974651  0.91182620  0.17873523    -0.60100
H1404       H  0.88705192  0.91206253  0.10498203     0.14300
H1405       H  0.86208665  0.84693055  0.97026429     0.46200
H1406       H  0.84344266  0.84620019  0.09321674     0.41600
H1407       H  0.88231267  0.92554840  0.18214790     0.45000
H1408       H  0.83960428  0.92540732  0.06131165     0.36500
C1409       C  0.61853718  0.99224648  0.64491081    -0.27700
C1410       C  0.62863809  0.00894319  0.62572599     0.01900
C1411       C  0.64057722  0.00430854  0.59294691     0.29900
C1412       C  0.64238903  0.98341913  0.57989744    -0.19500
C1413       C  0.63234888  0.96653291  0.59884727    -0.28900
C1414       C  0.62040592  0.97119811  0.63193334     0.44000
C1415       C  0.62708654  0.03121011  0.63974027     0.05200
O1416       O  0.65044010  0.02020506  0.57311905    -0.57500
H1417       H  0.65158075  0.98052980  0.55441004     0.18100
O1418       O  0.61046289  0.95540321  0.65185901    -0.64200
H1419       H  0.60939912  0.99549655  0.67032916     0.16600
C1420       C  0.60766862  0.04223279  0.64054092     0.28800
C1421       C  0.60719371  0.06405263  0.64891931    -0.25100
C1422       C  0.62595844  0.07529666  0.65681320    -0.24300
C1423       C  0.64524523  0.06380623  0.65790582     0.40300
C1424       C  0.64562882  0.04209065  0.64949073    -0.26800
O1425       O  0.58926442  0.03216651  0.63064803    -0.58700
H1426       H  0.59217060  0.07233028  0.64771513     0.15900
O1427       O  0.66393949  0.07360491  0.66699354    -0.60100
H1428       H  0.66066373  0.03378385  0.64956189     0.14300
H1429       H  0.62036949  0.95168746  0.67258270     0.46200
H1430       H  0.58293169  0.02737621  0.65494845     0.41600
H1431       H  0.67114174  0.07625842  0.64239603     0.45000
H1432       H  0.63945744  0.02593868  0.55589051     0.36500
C1433       C  0.53274650  0.88650995  0.59850862    -0.27700
C1434       C  0.52585092  0.87979066  0.63455142     0.01900
C1435       C  0.54109379  0.87415260  0.66187359     0.29900
C1436       C  0.56257519  0.87394819  0.65236985    -0.19500
C1437       C  0.56945328  0.87995713  0.61609608    -0.28900
C1438       C  0.55443796  0.88674922  0.58926911     0.44000
C1439       C  0.50289674  0.87743163  0.64327788     0.05200
O1440       O  0.53512264  0.86852634  0.69793871    -0.57500
H1441       H  0.57398487  0.86905389  0.67353754     0.18100
O1442       O  0.56070134  0.89282274  0.55361839    -0.64200
H1443       H  0.52129245  0.89086082  0.57708600     0.16600
C1444       C  0.48840555  0.89418961  0.63830664     0.28800
C1445       C  0.46720612  0.89173758  0.64968117    -0.25100
C1446       C  0.46018929  0.87275172  0.66634650    -0.24300
C1447       C  0.47455432  0.85579301  0.67010885     0.40300
C1448       C  0.49556893  0.85814016  0.65819921    -0.26800
O1449       O  0.49508362  0.91340634  0.62463725    -0.58700
H1450       H  0.45643551  0.90501676  0.64680381     0.15900
O1451       O  0.46813025  0.83669810  0.68472885    -0.60100
H1452       H  0.50633692  0.84487243  0.66125684     0.14300
H1453       H  0.56058982  0.87964835  0.53828216     0.46200
H1454       H  0.48969084  0.91413228  0.59829125     0.41600
H1455       H  0.47298900  0.83671645  0.71144576     0.45000
H1456       H  0.53346888  0.88209731  0.71183003     0.36500
C1457       C  0.76181373  0.90791752  0.40410379    -0.27700
C1458       C  0.75721074  0.88975089  0.42564588     0.01900
C1459       C  0.77110890  0.87228997  0.42329965     0.29900
C1460       C  0.78985794  0.87373097  0.40186037    -0.19500
C1461       C  0.79534097  0.89259186  0.38286930    -0.28900
C1462       C  0.78062946  0.90946272  0.38300715     0.44000
C1463       C  0.73822782  0.88954500  0.45110999     0.05200
O1464       O  0.76713364  0.85414982  0.44350413    -0.57500
H1465       H  0.80084711  0.86053596  0.40244566     0.18100
O1466       O  0.78487400  0.92794949  0.36403462    -0.64200
H1467       H  0.75098884  0.92124513  0.40441176     0.16600
C1468       C  0.73465794  0.90596544  0.47756745     0.28800
C1469       C  0.71585759  0.90654282  0.49901986    -0.25100
C1470       C  0.70026849  0.89085542  0.49477872    -0.24300
C1471       C  0.70435539  0.87385651  0.46951711     0.40300
C1472       C  0.72316690  0.87330052  0.44816756    -0.26800
O1473       O  0.74960206  0.92144207  0.48289618    -0.58700
H1474       H  0.71318240  0.91971376  0.51816593     0.15900
O1475       O  0.68953539  0.85832595  0.46360507    -0.60100
H1476       H  0.72553624  0.86058144  0.42794318     0.14300
H1477       H  0.78087442  0.92515016  0.33733240     0.46200
H1478       H  0.74372531  0.93432875  0.47074348     0.41600
H1479       H  0.68067955  0.86355463  0.44238523     0.45000
H1480       H  0.77370523  0.85650871  0.46865273     0.36500
C1481       C  0.64496868  0.04113069  0.15065142    -0.27700
C1482       C  0.62662581  0.03093472  0.13763230     0.01900
C1483       C  0.60761894  0.04269816  0.13580140     0.29900
C1484       C  0.60741494  0.06435483  0.14527079    -0.19500
C1485       C  0.62607387  0.07486630  0.15620888    -0.28900
C1486       C  0.64489210  0.06278614  0.15958974     0.44000
C1487       C  0.62786868  0.00841223  0.12439716     0.05200
O1488       O  0.58928761  0.03342496  0.12334750    -0.57500
H1489       H  0.59275259  0.07313231  0.14240185     0.18100
O1490       O  0.66336318  0.07190872  0.17184965    -0.64200
H1491       H  0.65962814  0.03231449  0.15328292     0.16600
C1492       C  0.64347025  0.00205600  0.09797658     0.28800
C1493       C  0.64466005  0.98093360  0.08588216    -0.25100
C1494       C  0.63028070  0.96554990  0.09914154    -0.24300
C1495       C  0.61447125  0.97196660  0.12526918     0.40300
C1496       C  0.61342399  0.99314991  0.13769784    -0.26800
O1497       O  0.65747827  0.01647593  0.08314291    -0.58700
H1498       H  0.65686644  0.97668965  0.06556949     0.15900
O1499       O  0.59954045  0.95788932  0.13803944    -0.60100
H1500       H  0.60128751  0.99763453  0.15797228     0.14300
H1501       H  0.67186538  0.07441948  0.14856268     0.46200
H1502       H  0.65010341  0.02279959  0.06108717     0.41600
H1503       H  0.60484741  0.95292563  0.16292174     0.45000
H1504       H  0.58982311  0.03457460  0.09531273     0.36500
C1505       C  0.53118714  0.89733876  0.11695836    -0.27700
C1506       C  0.52030327  0.87839852  0.12471132     0.01900
C1507       C  0.53083328  0.85901026  0.11876414     0.29900
C1508       C  0.55214441  0.85873818  0.10759252    -0.19500
C1509       C  0.56367648  0.87763339  0.10239137    -0.28900
C1510       C  0.55266241  0.89709345  0.10583854     0.44000
C1511       C  0.49832217  0.87871938  0.14047479     0.05200
O1512       O  0.52027083  0.84017450  0.12345043    -0.57500
H1513       H  0.55980561  0.84348158  0.10427245     0.18100
O1514       O  0.56285984  0.91599484  0.10008857    -0.64200
H1515       H  0.52323359  0.91240549  0.12085937     0.16600
C1516       C  0.49371126  0.86854669  0.17508584     0.28800
C1517       C  0.47278269  0.86697122  0.18798100    -0.25100
C1518       C  0.45590194  0.87590806  0.16749568    -0.24300
C1519       C  0.46067998  0.88728676  0.13393938     0.40300
C1520       C  0.48173184  0.88857400  0.12070646    -0.26800
O1521       O  0.50961985  0.86000230  0.19662689    -0.58700
H1522       H  0.46982817  0.85867743  0.21436309     0.15900
O1523       O  0.44499114  0.89715033  0.11373309    -0.60100
H1524       H  0.48502868  0.89684326  0.09442482     0.14300
H1525       H  0.55990298  0.91978917  0.07333582     0.46200
H1526       H  0.51454731  0.87175164  0.21304511     0.41600
H1527       H  0.44090823  0.88688932  0.09375728     0.45000
H1528       H  0.52681090  0.83330503  0.14583896     0.36500
C1529       C  0.63124823  0.86994272  0.85076054    -0.27700
C1530       C  0.63537058  0.88814091  0.82899458     0.01900
C1531       C  0.63799599  0.90770813  0.84733792     0.29900
C1532       C  0.63648244  0.90894966  0.88666958    -0.19500
C1533       C  0.63269119  0.89078974  0.90883361    -0.28900
C1534       C  0.63006151  0.87110381  0.89044814     0.44000
C1535       C  0.63658838  0.88684702  0.78715075     0.05200
O1536       O  0.64239273  0.92573536  0.82706450    -0.57500
H1537       H  0.63890516  0.92426058  0.89983929     0.18100
O1538       O  0.62580961  0.85305770  0.91074435    -0.64200
H1539       H  0.62880608  0.85481622  0.83693806     0.16600
C1540       C  0.65048949  0.87261526  0.76899109     0.28800
C1541       C  0.65119812  0.87170871  0.72935767    -0.25100
C1542       C  0.63827603  0.88498363  0.70735516    -0.24300
C1543       C  0.62463457  0.89946204  0.72557615     0.40300
C1544       C  0.62385249  0.90027584  0.76513837    -0.26800
O1545       O  0.66386573  0.86002673  0.78972801    -0.58700
H1546       H  0.66173635  0.86044066  0.71575823     0.15900
O1547       O  0.61132816  0.91223543  0.70507665    -0.60100
H1548       H  0.61291797  0.91116207  0.77872826     0.14300
H1549       H  0.63966121  0.84579364  0.91346361     0.46200
H1550       H  0.65763431  0.84562269  0.78865797     0.41600
H1551       H  0.59826159  0.90377943  0.70139180     0.45000
H1552       H  0.65806904  0.92634978  0.82548946     0.36500
C1553       C  0.62506213  0.90085479  0.26601128    -0.27700
C1554       C  0.62992993  0.88277697  0.28758344     0.01900
C1555       C  0.63403191  0.86354651  0.26876708     0.29900
C1556       C  0.63361266  0.86268577  0.22917117    -0.19500
C1557       C  0.62928190  0.88086602  0.20736077    -0.28900
C1558       C  0.62469707  0.90003465  0.22630869     0.44000
C1559       C  0.63155962  0.88439496  0.32949564     0.05200
O1560       O  0.63890279  0.84555874  0.28875134    -0.57500
H1561       H  0.63703081  0.84768038  0.21552121     0.18100
O1562       O  0.61964505  0.91801951  0.20649417    -0.64200
H1563       H  0.62149222  0.91571318  0.28006137     0.16600
C1564       C  0.64435464  0.90007332  0.34611253     0.28800
C1565       C  0.64551150  0.90182013  0.38549548    -0.25100
C1566       C  0.63432754  0.88786398  0.40932467    -0.24300
C1567       C  0.62200656  0.87170275  0.39273045     0.40300
C1568       C  0.62060066  0.87016060  0.35312671    -0.26800
O1569       O  0.65600907  0.91369809  0.32407476    -0.58700
H1570       H  0.65545797  0.91409700  0.39740512     0.15900
O1571       O  0.61107625  0.85750426  0.41477495    -0.60100
H1572       H  0.61069012  0.85797313  0.34084837     0.14300
H1573       H  0.60402687  0.91758610  0.20363031     0.46200
H1574       H  0.66922262  0.90589367  0.31787961     0.41600
H1575       H  0.59716607  0.86428590  0.41979068     0.45000
H1576       H  0.65456785  0.84552999  0.29073936     0.36500
C1577       C  0.72994926  0.91410135  0.96873765    -0.27700
C1578       C  0.73835586  0.89458139  0.95679455     0.01900
C1579       C  0.72710326  0.87592876  0.96576016     0.29900
C1580       C  0.70755930  0.87711709  0.98523530    -0.19500
C1581       C  0.69875194  0.89678527  0.99592937    -0.28900
C1582       C  0.71054348  0.91533469  0.98805759     0.44000
C1583       C  0.75932250  0.89428036  0.93671379     0.05200
O1584       O  0.73538401  0.85646079  0.95667219    -0.57500
H1585       H  0.69894823  0.86259951  0.99076602     0.18100
O1586       O  0.70306773  0.93494302  0.99827264    -0.64200
H1587       H  0.73840104  0.92863964  0.96256009     0.16600
C1588       C  0.76237618  0.88454329  0.90092981     0.28800
C1589       C  0.78224256  0.88564069  0.88248265    -0.25100
C1590       C  0.79907446  0.89703508  0.89860341    -0.24300
C1591       C  0.79592526  0.90666516  0.93440533     0.40300
C1592       C  0.77638037  0.90512794  0.95302946    -0.26800
O1593       O  0.74594761  0.87443666  0.88322483    -0.58700
H1594       H  0.78432113  0.87805045  0.85516126     0.15900
O1595       O  0.81224453  0.91684730  0.95242064    -0.60100
H1596       H  0.77453763  0.91254118  0.98057684     0.14300
H1597       H  0.70770708  0.93696013  0.02486451     0.46200
H1598       H  0.73860153  0.88563381  0.86855871     0.41600
H1599       H  0.80975679  0.93216298  0.94797753     0.45000
H1600       H  0.72604249  0.85070339  0.93661073     0.36500
C1601       C  0.85359666  0.73898946  0.77595725    -0.27700
C1602       C  0.84665140  0.74367103  0.81299208     0.01900
C1603       C  0.84003684  0.72706133  0.83671628     0.29900
C1604       C  0.84114513  0.70607190  0.82391327    -0.19500
C1605       C  0.84912516  0.70122886  0.78766963    -0.28900
C1606       C  0.85502082  0.71788707  0.76333884     0.44000
C1607       C  0.84802072  0.76566621  0.82768327     0.05200
O1608       O  0.83309738  0.73117674  0.87289362    -0.57500
H1609       H  0.83712834  0.69338919  0.84337063     0.18100
O1610       O  0.86384690  0.71365451  0.72855724    -0.64200
H1611       H  0.85896975  0.75165100  0.75755668     0.16600
C1612       C  0.86465486  0.77167328  0.85195706     0.28800
C1613       C  0.86708894  0.79296498  0.86246333    -0.25100
C1614       C  0.85285882  0.80844760  0.84962164    -0.24300
C1615       C  0.83556987  0.80223725  0.82707128     0.40300
C1616       C  0.83334354  0.78099678  0.81598426    -0.26800
O1617       O  0.87918340  0.75700936  0.86407322    -0.58700
H1618       H  0.88078876  0.79758964  0.87892766     0.15900
O1619       O  0.82199480  0.81713577  0.81261630    -0.60100
H1620       H  0.82054038  0.77659212  0.79720461     0.14300
H1621       H  0.85168050  0.71078128  0.71162125     0.46200
H1622       H  0.89043828  0.75691615  0.84436998     0.41600
H1623       H  0.81099073  0.81911567  0.83245019     0.45000
H1624       H  0.84558211  0.72878951  0.88934361     0.36500
C1625       C  0.85954804  0.73846321  0.27691795    -0.27700
C1626       C  0.84561679  0.74450460  0.30611433     0.01900
C1627       C  0.83113995  0.72960364  0.32060123     0.29900
C1628       C  0.83199202  0.70850466  0.30805716    -0.19500
C1629       C  0.84732952  0.70209768  0.28143684    -0.28900
C1630       C  0.86060501  0.71738034  0.26484460     0.44000
C1631       C  0.84791975  0.76579252  0.32327207     0.05200
O1632       O  0.81725026  0.73512386  0.34894586    -0.57500
H1633       H  0.82206251  0.69677646  0.32180299     0.18100
O1634       O  0.87556986  0.71154288  0.23850682    -0.64200
H1635       H  0.87052763  0.74989219  0.26506687     0.16600
C1636       C  0.86709638  0.77153452  0.34078431     0.28800
C1637       C  0.87059933  0.79256928  0.35155739    -0.25100
C1638       C  0.85507661  0.80806815  0.34546363    -0.24300
C1639       C  0.83535755  0.80208102  0.33024533     0.40300
C1640       C  0.83183095  0.78097551  0.31944127    -0.26800
O1641       O  0.88266197  0.75671381  0.34670257    -0.58700
H1642       H  0.88590554  0.79701319  0.36286236     0.15900
O1643       O  0.82013613  0.81703936  0.32288283    -0.60100
H1644       H  0.81703193  0.77674322  0.30596996     0.14300
H1645       H  0.88881373  0.70942269  0.25306885     0.46200
H1646       H  0.89319384  0.75903649  0.32618109     0.41600
H1647       H  0.82336920  0.82231348  0.29700071     0.45000
H1648       H  0.82487046  0.73217987  0.37292164     0.36500
C1649       C  0.86945023  0.60495331  0.59104009    -0.27700
C1650       C  0.86284523  0.62403885  0.57455978     0.01900
C1651       C  0.85641158  0.64085181  0.59832541     0.29900
C1652       C  0.85689099  0.63840683  0.63784823    -0.19500
C1653       C  0.86349100  0.61925552  0.65445703    -0.28900
C1654       C  0.86978106  0.60241676  0.63038697     0.44000
C1655       C  0.86274961  0.62593386  0.53255211     0.05200
O1656       O  0.84833975  0.65918513  0.58316268    -0.57500
H1657       H  0.85142723  0.65139903  0.65544627     0.18100
O1658       O  0.87590593  0.58318525  0.64477029    -0.64200
H1659       H  0.87446437  0.59186302  0.57323510     0.16600
C1660       C  0.87286862  0.64295758  0.51418359     0.28800
C1661       C  0.87295444  0.64415069  0.47464964    -0.25100
C1662       C  0.86361672  0.62820878  0.45238078    -0.24300
C1663       C  0.85393546  0.61086410  0.47072291     0.40300
C1664       C  0.85346914  0.60990481  0.51043174    -0.26800
O1665       O  0.88330756  0.65822997  0.53448976    -0.58700
H1666       H  0.88086367  0.65746584  0.46137903     0.15900
O1667       O  0.84484266  0.59479478  0.45029922    -0.60100
H1668       H  0.84578589  0.59656246  0.52403838     0.14300
H1669       H  0.89147876  0.58421645  0.64782199     0.46200
H1670       H  0.89778828  0.65254081  0.53834724     0.41600
H1671       H  0.82996411  0.59929575  0.44628780     0.45000
H1672       H  0.85806401  0.67065130  0.59126357     0.36500
C1673       C  0.84834583  0.63849701  0.09654483    -0.27700
C1674       C  0.86024232  0.62425295  0.07458459     0.01900
C1675       C  0.87291139  0.60899964  0.09254496     0.29900
C1676       C  0.87311585  0.60771484  0.13209874    -0.19500
C1677       C  0.86081065  0.62158548  0.15433860    -0.28900
C1678       C  0.84854625  0.63727915  0.13618960     0.44000
C1679       C  0.85999490  0.62596027  0.03291276     0.05200
O1680       O  0.88561640  0.59572184  0.07164367    -0.57500
H1681       H  0.88286858  0.59572070  0.14541183     0.18100
O1682       O  0.83580293  0.65070052  0.15670931    -0.64200
H1683       H  0.83864223  0.65039524  0.08283670     0.16600
C1684       C  0.85106762  0.61000237  0.01014866     0.28800
C1685       C  0.85169393  0.61181670  0.97054083    -0.25100
C1686       C  0.86099808  0.62959022  0.95320621    -0.24300
C1687       C  0.86995744  0.64552912  0.97645371     0.40300
C1688       C  0.86920425  0.64367507  0.01584573    -0.26800
O1689       O  0.84168481  0.59262849  0.02639026    -0.58700
H1690       H  0.84473893  0.59939901  0.95342945     0.15900
O1691       O  0.87991179  0.66285358  0.96111266    -0.60100
H1692       H  0.87624795  0.65594685  0.03320811     0.14300
H1693       H  0.84422068  0.66383454  0.15988717     0.46200
H1694       H  0.82655182  0.59653404  0.02943953     0.41600
H1695       H  0.89475903  0.65828824  0.95668259     0.45000
H1696       H  0.87767278  0.58221677  0.06987711     0.36500
C1697       C  0.66158895  0.72963662  0.57696921    -0.27700
C1698       C  0.64586625  0.74463945  0.58579557     0.01900
C1699       C  0.62914169  0.73876726  0.61025312     0.29900
C1700       C  0.62686693  0.71769562  0.62161065    -0.19500
C1701       C  0.64143684  0.70226089  0.60989345    -0.28900
C1702       C  0.65943948  0.70848343  0.58890915     0.44000
C1703       C  0.64528561  0.76558198  0.56652746     0.05200
O1704       O  0.61402883  0.75324022  0.62095647    -0.57500
H1705       H  0.61282849  0.71309929  0.63736429     0.18100
O1706       O  0.67390767  0.69365970  0.57692953    -0.64200
H1707       H  0.67464854  0.73390189  0.55848445     0.16600
C1708       C  0.66180364  0.78043418  0.56993805     0.28800
C1709       C  0.65885591  0.80127560  0.55686912    -0.25100
C1710       C  0.63954510  0.80745180  0.54047641    -0.24300
C1711       C  0.62378466  0.79215829  0.53442849     0.40300
C1712       C  0.62686470  0.77134554  0.54677905    -0.26800
O1713       O  0.67994642  0.77535523  0.58917616    -0.58700
H1714       H  0.67094364  0.81303193  0.56249092     0.15900
O1715       O  0.60490113  0.79769350  0.51802478    -0.60100
H1716       H  0.61423751  0.75993348  0.54294507     0.14300
H1717       H  0.66919535  0.68938345  0.55124182     0.46200
H1718       H  0.69064218  0.77231633  0.56922756     0.41600
H1719       H  0.59490019  0.79983713  0.53945626     0.45000
H1720       H  0.62040456  0.76118146  0.64232117     0.36500
C1721       C  0.60937989  0.51982706  0.49655096    -0.27700
C1722       C  0.62415448  0.50451507  0.50818804     0.01900
C1723       C  0.64007454  0.51038810  0.53397385     0.29900
C1724       C  0.64120996  0.53118504  0.54740179    -0.19500
C1725       C  0.62653324  0.54666866  0.53586108    -0.28900
C1726       C  0.61049116  0.54076554  0.51005050     0.44000
C1727       C  0.62300677  0.48233632  0.49403233     0.05200
O1728       O  0.65449803  0.49578616  0.54673405    -0.57500
H1729       H  0.65364533  0.53510386  0.56728161     0.18100
O1730       O  0.59543764  0.55507103  0.49867748    -0.64200
H1731       H  0.59699940  0.51556309  0.47679222     0.16600
C1732       C  0.60499549  0.46966343  0.50042543     0.28800
C1733       C  0.60552196  0.44795644  0.49165313    -0.25100
C1734       C  0.62389940  0.43851067  0.47643175    -0.24300
C1735       C  0.64144708  0.45158264  0.46792900     0.40300
C1736       C  0.64084396  0.47323674  0.47660360    -0.26800
O1737       O  0.58739972  0.47797911  0.51787276    -0.58700
H1738       H  0.59185228  0.43831893  0.49857998     0.15900
O1739       O  0.65930705  0.44337783  0.45113757    -0.60100
H1740       H  0.65466706  0.48287869  0.47073162     0.14300
H1741       H  0.60097704  0.56114828  0.47468112     0.46200
H1742       H  0.57727645  0.48088680  0.49707739     0.41600
H1743       H  0.66976896  0.44190676  0.47188959     0.45000
H1744       H  0.64739926  0.48854037  0.56825186     0.36500
C1745       C  0.48987046  0.65140763  0.48173017    -0.27700
C1746       C  0.49547172  0.63505869  0.50664258     0.01900
C1747       C  0.48003291  0.62004683  0.51715743     0.29900
C1748       C  0.45955839  0.62114572  0.50166816    -0.19500
C1749       C  0.45421450  0.63700195  0.47529796    -0.28900
C1750       C  0.46958426  0.65247795  0.46606766     0.44000
C1751       C  0.51764684  0.63396598  0.52059756     0.05200
O1752       O  0.48464754  0.60469687  0.54341245    -0.57500
H1753       H  0.44799034  0.60930846  0.50981795     0.18100
O1754       O  0.46491706  0.66900440  0.44224123    -0.64200
H1755       H  0.50147599  0.66324811  0.47372000     0.16600
C1756       C  0.53061122  0.61624030  0.51309587     0.28800
C1757       C  0.55218413  0.61666345  0.52254250    -0.25100
C1758       C  0.56135694  0.63482486  0.53875120    -0.24300
C1759       C  0.54814018  0.65230198  0.54730153     0.40300
C1760       C  0.52658618  0.65176699  0.53815101    -0.26800
O1761       O  0.52264638  0.59886043  0.49468758    -0.58700
H1762       H  0.56197248  0.60313432  0.51527637     0.15900
O1763       O  0.55618912  0.67027587  0.56366624    -0.60100
H1764       H  0.51686391  0.66555765  0.54400545     0.14300
H1765       H  0.47069114  0.66478878  0.41714412     0.46200
H1766       H  0.52386210  0.60221103  0.46728773     0.41600
H1767       H  0.55507237  0.66784714  0.59138404     0.45000
H1768       H  0.48477978  0.59114845  0.52915955     0.36500
C1769       C  0.76116844  0.62787500  0.72689179    -0.27700
C1770       C  0.75610458  0.61262962  0.69918493     0.01900
C1771       C  0.77135538  0.59722057  0.68973194     0.29900
C1772       C  0.79085663  0.59677522  0.70847074    -0.19500
C1773       C  0.79597502  0.61169505  0.73674607    -0.28900
C1774       C  0.78091519  0.62754077  0.74552494     0.44000
C1775       C  0.73482220  0.61239552  0.68071574     0.05200
O1776       O  0.76775047  0.58321318  0.66064664    -0.57500
H1777       H  0.80231697  0.58492152  0.69977554     0.18100
O1778       O  0.78528754  0.64281230  0.77200279    -0.64200
H1779       H  0.74968031  0.63994810  0.73438193     0.16600
C1780       C  0.72218714  0.59402078  0.68175272     0.28800
C1781       C  0.70254713  0.59360602  0.66353341    -0.25100
C1782       C  0.69452210  0.61152438  0.64450990    -0.24300
C1783       C  0.70717166  0.63003801  0.64362808     0.40300
C1784       C  0.72706760  0.63034526  0.66164472    -0.26800
O1785       O  0.72863509  0.57642789  0.70143057    -0.58700
H1786       H  0.69324367  0.57924131  0.66561164     0.15900
O1787       O  0.70009508  0.64812741  0.62625893    -0.60100
H1788       H  0.73651102  0.64465577  0.66062090     0.14300
H1789       H  0.78103372  0.63654096  0.79665833     0.46200
H1790       H  0.72445339  0.57913594  0.72813683     0.41600
H1791       H  0.70507259  0.64700345  0.59962492     0.45000
H1792       H  0.76733485  0.56897796  0.67253548     0.36500
C1793       C  0.66506431  0.72773078  0.05783234    -0.27700
C1794       C  0.65143178  0.74354981  0.07177979     0.01900
C1795       C  0.63748613  0.73845852  0.10187684     0.29900
C1796       C  0.63536989  0.71747301  0.11409905    -0.19500
C1797       C  0.64756465  0.70134142  0.09773497    -0.28900
C1798       C  0.66327916  0.70673391  0.07086454     0.44000
C1799       C  0.64952047  0.76451147  0.05247867     0.05200
O1800       O  0.62463685  0.75367646  0.11758028    -0.57500
H1801       H  0.62305464  0.71356265  0.13441289     0.18100
O1802       O  0.67528767  0.69120568  0.05405191    -0.64200
H1803       H  0.67597301  0.73127994  0.03492175     0.16600
C1804       C  0.66662435  0.77874686  0.04868685     0.28800
C1805       C  0.66276941  0.79998658  0.03820576    -0.25100
C1806       C  0.64200460  0.80702505  0.03098852    -0.24300
C1807       C  0.62553812  0.79199049  0.02995894     0.40300
C1808       C  0.62936738  0.77103415  0.04050787    -0.26800
O1809       O  0.68671760  0.77265553  0.05851243    -0.58700
H1810       H  0.67567797  0.81127310  0.03897651     0.15900
O1811       O  0.60517619  0.79803119  0.02181726    -0.60100
H1812       H  0.61616763  0.76008174  0.04163375     0.14300
H1813       H  0.68699790  0.68844198  0.07205686     0.46200
H1814       H  0.69396337  0.76952017  0.03413556     0.41600
H1815       H  0.60449861  0.79848748  0.99374084     0.45000
H1816       H  0.63350212  0.76080801  0.13689900     0.36500
C1817       C  0.64121594  0.50615688  0.04802729    -0.27700
C1818       C  0.62868088  0.50131277  0.01645835     0.01900
C1819       C  0.61640712  0.51750056  0.99999657     0.29900
C1820       C  0.61691496  0.53814368  0.01499107    -0.19500
C1821       C  0.62954813  0.54309445  0.04666050    -0.28900
C1822       C  0.64177362  0.52669156  0.06308663     0.44000
C1823       C  0.62837766  0.47916849  0.00180113     0.05200
O1824       O  0.60390996  0.51332739  0.96917164    -0.57500
H1825       H  0.60730846  0.55028429  0.00177953     0.18100
O1826       O  0.65415602  0.53035649  0.09427397    -0.64200
H1827       H  0.65050209  0.49383025  0.06144234     0.16600
C1828       C  0.64725433  0.46898198  0.99069881     0.28800
C1829       C  0.64711527  0.44744298  0.98093135    -0.25100
C1830       C  0.62832604  0.43542999  0.98243782    -0.24300
C1831       C  0.60923866  0.44594813  0.99219235     0.40300
C1832       C  0.60939779  0.46760156  0.00152958    -0.26800
O1833       O  0.66592705  0.48006013  0.98896935    -0.58700
H1834       H  0.66198363  0.44003621  0.97305674     0.15900
O1835       O  0.59038192  0.43520244  0.99369770    -0.60100
H1836       H  0.59473214  0.47518770  0.01008121     0.14300
H1837       H  0.66848867  0.53337995  0.08401708     0.46200
H1838       H  0.67405082  0.47558963  0.01161995     0.41600
H1839       H  0.58894515  0.43044500  0.02039049     0.45000
H1840       H  0.61304326  0.51614378  0.94679275     0.36500
C1841       C  0.53482223  0.61547095  0.00686332    -0.27700
C1842       C  0.52357410  0.63464950  0.00751128     0.01900
C1843       C  0.53404126  0.65323895  0.01894234     0.29900
C1844       C  0.55554176  0.65256806  0.02866227    -0.19500
C1845       C  0.56714664  0.63351626  0.02685997    -0.28900
C1846       C  0.55640657  0.61477385  0.01631423     0.44000
C1847       C  0.50135587  0.63538597  0.99379883     0.05200
O1848       O  0.52325730  0.67209858  0.02114025    -0.57500
H1849       H  0.56321476  0.66716847  0.03707376     0.18100
O1850       O  0.56704839  0.59590928  0.01295294    -0.64200
H1851       H  0.52700121  0.60108523  0.99772715     0.16600
C1852       C  0.49624557  0.64689878  0.96096259     0.28800
C1853       C  0.47534007  0.64759457  0.94810158    -0.25100
C1854       C  0.45898125  0.63672171  0.96719444    -0.24300
C1855       C  0.46420040  0.62491078  0.99993560     0.40300
C1856       C  0.48525195  0.62431032  0.01291731    -0.26800
O1857       O  0.51165888  0.65740709  0.94092131    -0.58700
H1858       H  0.47203094  0.65663469  0.92269634     0.15900
O1859       O  0.44888633  0.61427939  0.01996239    -0.60100
H1860       H  0.48899733  0.61530953  0.03817719     0.14300
H1861       H  0.56495380  0.58865267  0.03761964     0.46200
H1862       H  0.51776728  0.64667850  0.92345961     0.41600
H1863       H  0.44926154  0.59957246  0.01007255     0.45000
H1864       H  0.52843628  0.68066054  0.99942924     0.36500
C1865       C  0.64046481  0.60041057  0.79146933    -0.27700
C1866       C  0.63308082  0.61815174  0.81133559     0.01900
C1867       C  0.62404437  0.63514928  0.79089525     0.29900
C1868       C  0.62268534  0.63422707  0.75119172    -0.19500
C1869       C  0.62988160  0.61629545  0.73141717    -0.28900
C1870       C  0.63898930  0.59938493  0.75203949     0.44000
C1871       C  0.63544074  0.61894552  0.85320597     0.05200
O1872       O  0.61642554  0.65269293  0.80945247    -0.57500
H1873       H  0.61581090  0.64742307  0.73591130     0.18100
O1874       O  0.64717278  0.58196477  0.73383941    -0.64200
H1875       H  0.64788811  0.58743559  0.80654040     0.16600
C1876       C  0.62809583  0.60234338  0.87663559     0.28800
C1877       C  0.62970827  0.60397960  0.91617409    -0.25100
C1878       C  0.63838415  0.62216425  0.93294098    -0.24300
C1879       C  0.64688052  0.63814500  0.90932241     0.40300
C1880       C  0.64531519  0.63646207  0.86993997    -0.26800
O1881       O  0.61856751  0.58482781  0.86127391    -0.58700
H1882       H  0.62308174  0.59153288  0.93372690     0.15900
O1883       O  0.65629582  0.65579619  0.92443955    -0.60100
H1884       H  0.65168602  0.64902907  0.85236278     0.14300
H1885       H  0.66193415  0.58588045  0.72712611     0.46200
H1886       H  0.60335166  0.58857635  0.85931293     0.41600
H1887       H  0.67126005  0.65167682  0.92873137     0.45000
H1888       H  0.60186534  0.64885470  0.81755028     0.36500
C1889       C  0.63841882  0.63950859  0.28856397    -0.27700
C1890       C  0.62424063  0.62768283  0.31078836     0.01900
C1891       C  0.60893191  0.61502674  0.29277427     0.29900
C1892       C  0.60851314  0.61370985  0.25308275    -0.19500
C1893       C  0.62315227  0.62501611  0.23080741    -0.28900
C1894       C  0.63806714  0.63816460  0.24895523     0.44000
C1895       C  0.62546578  0.62901304  0.35271179     0.05200
O1896       O  0.59397626  0.60440356  0.31373950    -0.57500
H1897       H  0.59690118  0.60356107  0.23969391     0.18100
O1898       O  0.65304623  0.64899136  0.22840358    -0.64200
H1899       H  0.65023683  0.64937086  0.30206544     0.16600
C1900       C  0.62894632  0.61091925  0.37523733     0.28800
C1901       C  0.62970990  0.61271533  0.41486377    -0.25100
C1902       C  0.62734137  0.63252216  0.43280037    -0.24300
C1903       C  0.62441744  0.65070890  0.40975114     0.40300
C1904       C  0.62360820  0.64879885  0.37028508    -0.26800
O1905       O  0.63180984  0.59142404  0.35880279    -0.58700
H1906       H  0.63210242  0.59850512  0.43152835     0.15900
O1907       O  0.62229817  0.67053805  0.42525559    -0.60100
H1908       H  0.62118018  0.66288551  0.35326909     0.14300
H1909       H  0.66506655  0.63897798  0.22544513     0.46200
H1910       H  0.64706830  0.59079354  0.35208398     0.41600
H1911       H  0.60680668  0.67303810  0.42697047     0.45000
H1912       H  0.59777382  0.58919658  0.31162967     0.36500
C1913       C  0.71555600  0.59997804  0.20993449    -0.27700
C1914       C  0.73144864  0.61343340  0.19615589     0.01900
C1915       C  0.72730096  0.62586393  0.16380092     0.29900
C1916       C  0.70758012  0.62444132  0.14548139    -0.19500
C1917       C  0.69172420  0.61068718  0.15896827    -0.28900
C1918       C  0.69585572  0.59869731  0.19207617     0.44000
C1919       C  0.75269137  0.61295981  0.21431786     0.05200
O1920       O  0.74277666  0.63863032  0.14880660    -0.57500
H1921       H  0.70476785  0.63401248  0.12050491     0.18100
O1922       O  0.68062944  0.58591021  0.20785580    -0.64200
H1923       H  0.71843477  0.59041684  0.23491800     0.16600
C1924       C  0.76205941  0.63114378  0.23022681     0.28800
C1925       C  0.78248725  0.63000753  0.24592461    -0.25100
C1926       C  0.79392787  0.61080013  0.24626863    -0.24300
C1927       C  0.78396272  0.59244512  0.23156809     0.40300
C1928       C  0.76361376  0.59366905  0.21612102    -0.26800
O1929       O  0.75147292  0.65012473  0.23035235    -0.58700
H1930       H  0.78959531  0.64436905  0.25684252     0.15900
O1931       O  0.79398335  0.57314524  0.23165592    -0.60100
H1932       H  0.75651057  0.57946182  0.20450922     0.14300
H1933       H  0.67255021  0.59521137  0.22541047     0.46200
H1934       H  0.74252791  0.64983610  0.25352962     0.41600
H1935       H  0.79969605  0.57136174  0.20559273     0.45000
H1936       H  0.73849269  0.65329322  0.15546476     0.36500
C1937       C  0.26668948  0.87273523  0.73094717    -0.27700
C1938       C  0.26042675  0.85659617  0.70591816     0.01900
C1939       C  0.27533140  0.84094513  0.69554254     0.29900
C1940       C  0.29641031  0.84245598  0.70817850    -0.19500
C1941       C  0.30293125  0.85954038  0.73083856    -0.28900
C1942       C  0.28774664  0.87444111  0.74289478     0.44000
C1943       C  0.23894947  0.85774681  0.68846819     0.05200
O1944       O  0.27007324  0.82553058  0.66982925    -0.57500
H1945       H  0.30808219  0.83139937  0.69725614     0.18100
O1946       O  0.29369450  0.89152228  0.76445363    -0.64200
H1947       H  0.25543808  0.88480881  0.73956801     0.16600
C1948       C  0.22424916  0.84097345  0.69115082     0.28800
C1949       C  0.20336319  0.84374489  0.67820014    -0.25100
C1950       C  0.19672928  0.86328222  0.66328361    -0.24300
C1951       C  0.21168445  0.87964899  0.65903937     0.40300
C1952       C  0.23255386  0.87676917  0.67123547    -0.26800
O1953       O  0.22963587  0.82239119  0.70879720    -0.58700
H1954       H  0.19189276  0.83124837  0.68288381     0.15900
O1955       O  0.20563243  0.89910275  0.64551517    -0.60100
H1956       H  0.24360185  0.88982851  0.66870773     0.14300
H1957       H  0.29546069  0.90338331  0.74626493     0.46200
H1958       H  0.22737074  0.82505739  0.73623753     0.41600
H1959       H  0.20681222  0.89795633  0.61754110     0.45000
H1960       H  0.26992569  0.81210383  0.68442297     0.36500
C1961       C  0.00072097  0.86191192  0.71640236    -0.27700
C1962       C  0.99484086  0.87852631  0.74087549     0.01900
C1963       C  0.01033473  0.89350052  0.75128410     0.29900
C1964       C  0.03112350  0.89172119  0.73711790    -0.19500
C1965       C  0.03692937  0.87521105  0.71230500    -0.28900
C1966       C  0.02140794  0.86015912  0.70218371     0.44000
C1967       C  0.97265037  0.87929205  0.75584752     0.05200
O1968       O  0.00564025  0.90921719  0.77688821    -0.57500
H1969       H  0.04273918  0.90339708  0.74562845     0.18100
O1970       O  0.02640129  0.84317575  0.67954585    -0.64200
H1971       H  0.98913952  0.85014006  0.70813188     0.16600
C1972       C  0.95990509  0.89765639  0.75335374     0.28800
C1973       C  0.93845502  0.89696052  0.76415802    -0.25100
C1974       C  0.92908187  0.87796503  0.77655261    -0.24300
C1975       C  0.94208119  0.85981687  0.78028288     0.40300
C1976       C  0.96355274  0.86067898  0.77033303    -0.26800
O1977       O  0.96786171  0.91609759  0.73856331    -0.58700
H1978       H  0.92887687  0.91108625  0.76082968     0.15900
O1979       O  0.93400898  0.84105987  0.79366006    -0.60100
H1980       H  0.97306653  0.84646320  0.77308868     0.14300
H1981       H  0.02150393  0.84713974  0.65381700     0.46200
H1982       H  0.96594758  0.91485002  0.71075653     0.41600
H1983       H  0.93178531  0.83214067  0.77084791     0.45000
H1984       H  0.00736514  0.92273212  0.76285484     0.36500
C1985       C  0.11539930  0.97306636  0.71935438    -0.27700
C1986       C  0.12678755  0.98091042  0.75051816     0.01900
C1987       C  0.13727048  0.96653869  0.77454748     0.29900
C1988       C  0.13686547  0.94484053  0.76661109    -0.19500
C1989       C  0.12590614  0.93695042  0.73506947    -0.28900
C1990       C  0.11481026  0.95122055  0.71164079     0.44000
C1991       C  0.12753285  0.00401520  0.75840570     0.05200
O1992       O  0.14716272  0.97352109  0.80682274    -0.57500
H1993       H  0.14500193  0.93407329  0.78556807     0.18100
O1994       O  0.10422114  0.94411716  0.68023279    -0.64200
H1995       H  0.10718845  0.98393529  0.70070836     0.16600
C1996       C  0.14708004  0.01457859  0.76208589     0.28800
C1997       C  0.14763031  0.03561847  0.77447355    -0.25100
C1998       C  0.12883317  0.04673063  0.78212413    -0.24300
C1999       C  0.10923049  0.03662583  0.77625385     0.40300
C2000       C  0.10868012  0.01535689  0.76465243    -0.26800
O2001       O  0.16577753  0.00432607  0.75438050    -0.58700
H2002       H  0.16283331  0.04325162  0.77842295     0.15900
O2003       O  0.09060970  0.04683643  0.78467102    -0.60100
H2004       H  0.09352882  0.00745739  0.76199708     0.14300
H2005       H  0.08921447  0.94285270  0.68833655     0.46200
H2006       H  0.16792993  0.00592286  0.72665712     0.41600
H2007       H  0.08593052  0.05320459  0.76040385     0.45000
H2008       H  0.16250649  0.97107547  0.80248120     0.36500
C2009       C  0.22172031  0.83362374  0.17524107    -0.27700
C2010       C  0.23715934  0.84960947  0.17682644     0.01900
C2011       C  0.23248336  0.86971647  0.16184087     0.29900
C2012       C  0.21205810  0.87427133  0.14897063    -0.19500
C2013       C  0.19598250  0.85895029  0.15047879    -0.28900
C2014       C  0.20119944  0.83816020  0.16187795     0.44000
C2015       C  0.25771259  0.84624850  0.19623454     0.05200
O2016       O  0.24772014  0.88521293  0.16077147    -0.57500
H2017       H  0.20840206  0.89029631  0.14007931     0.18100
O2018       O  0.18587579  0.82282323  0.16390450    -0.64200
H2019       H  0.22522931  0.81799075  0.18623314     0.16600
C2020       C  0.26182253  0.85659514  0.23088785     0.28800
C2021       C  0.28272307  0.85872039  0.24380197    -0.25100
C2022       C  0.29962160  0.85031032  0.22276558    -0.24300
C2023       C  0.29525551  0.83804422  0.19028670     0.40300
C2024       C  0.27439597  0.83614584  0.17710518    -0.26800
O2025       O  0.24556509  0.86570141  0.25109713    -0.58700
H2026       H  0.28584461  0.86839999  0.26853826     0.15900
O2027       O  0.31152084  0.82998651  0.16876213    -0.60100
H2028       H  0.27148379  0.82823275  0.15035981     0.14300
H2029       H  0.18599455  0.81593587  0.13862363     0.46200
H2030       H  0.24673384  0.88114263  0.24639578     0.41600
H2031       H  0.31512791  0.81624297  0.18073777     0.45000
H2032       H  0.24390345  0.89528302  0.18128679     0.36500
C2033       C  0.01325932  0.88463240  0.26828001    -0.27700
C2034       C  0.99736108  0.87298610  0.24991619     0.01900
C2035       C  0.00295458  0.86018352  0.21877686     0.29900
C2036       C  0.02398755  0.85953733  0.20591017    -0.19500
C2037       C  0.04002833  0.87136725  0.22379381    -0.28900
C2038       C  0.03445765  0.88373248  0.25578600     0.44000
C2039       C  0.97484000  0.87469394  0.26237550     0.05200
O2040       O  0.98770854  0.84915034  0.19940471    -0.57500
H2041       H  0.02759934  0.84993124  0.18124996     0.18100
O2042       O  0.04943227  0.89533040  0.27468203    -0.64200
H2043       H  0.00919944  0.89448037  0.29241227     0.16600
C2044       C  0.96394456  0.85696428  0.27667000     0.28800
C2045       C  0.94222019  0.85834506  0.28486369    -0.25100
C2046       C  0.93080991  0.87722876  0.27874785    -0.24300
C2047       C  0.94191956  0.89520030  0.26566238     0.40300
C2048       C  0.96374840  0.89383723  0.25766808    -0.26800
O2049       O  0.97449467  0.83827582  0.28303574    -0.58700
H2050       H  0.93414857  0.84435320  0.29529032     0.15900
O2051       O  0.93137323  0.91368216  0.25787177    -0.60100
H2052       H  0.97188815  0.90756224  0.24633703     0.14300
H2053       H  0.05480181  0.88578075  0.29481043     0.46200
H2054       H  0.96895271  0.82816407  0.26396981     0.41600
H2055       H  0.93229797  0.92217712  0.28146376     0.45000
H2056       H  0.99050227  0.83399432  0.20489437     0.36500
C2057       C  0.10853397  0.97238526  0.23631906    -0.27700
C2058       C  0.12763988  0.98355508  0.23949295     0.01900
C2059       C  0.14676076  0.97323300  0.23084462     0.29900
C2060       C  0.14673830  0.95175804  0.22100957    -0.19500
C2061       C  0.12775070  0.93997023  0.21994230    -0.28900
C2062       C  0.10844933  0.95074252  0.22686606     0.44000
C2063       C  0.12778918  0.00519059  0.25577056     0.05200
O2064       O  0.16568431  0.98377448  0.23364945    -0.57500
H2065       H  0.16185295  0.94416248  0.21565648     0.18100
O2066       O  0.08946522  0.94023090  0.22571761    -0.64200
H2067       H  0.09369788  0.98023299  0.24293170     0.16600
C2068       C  0.12172506  0.02298585  0.23444908     0.28800
C2069       C  0.12212920  0.04323196  0.25096737    -0.25100
C2070       C  0.12852677  0.04606712  0.28889902    -0.24300
C2071       C  0.13451380  0.02805249  0.31011327     0.40300
C2072       C  0.13411915  0.00790723  0.29348714    -0.26800
O2073       O  0.11598841  0.02082014  0.19718494    -0.58700
H2074       H  0.11760611  0.05675697  0.23389449     0.15900
O2075       O  0.14005749  0.02979026  0.34755477    -0.60100
H2076       H  0.13865134  0.99425630  0.31024631     0.14300
H2077       H  0.08658605  0.93589980  0.25227997     0.46200
H2078       H  0.10050228  0.01822095  0.19773986     0.41600
H2079       H  0.15576676  0.02999198  0.34763371     0.45000
H2080       H  0.16756753  0.99100078  0.20889902     0.36500
C2081       C  0.12636629  0.85711290  0.89039408    -0.27700
C2082       C  0.11185411  0.87124400  0.90676343     0.01900
C2083       C  0.09810440  0.88286759  0.88327711     0.29900
C2084       C  0.09955364  0.88082256  0.84376802    -0.19500
C2085       C  0.11463699  0.86725035  0.82728778    -0.28900
C2086       C  0.12774292  0.85496237  0.85100346     0.44000
C2087       C  0.11086756  0.87320562  0.94849180     0.05200
O2088       O  0.08414582  0.89719307  0.89866027    -0.57500
H2089       H  0.08963792  0.89068969  0.82600525     0.18100
O2090       O  0.14229395  0.84114616  0.83590949    -0.64200
H2091       H  0.13671710  0.84777569  0.90827400     0.16600
C2092       C  0.09286656  0.86627276  0.96836192     0.28800
C2093       C  0.09239525  0.86726306  0.00787142    -0.25100
C2094       C  0.10989146  0.87479623  0.02846725    -0.24300
C2095       C  0.12794756  0.88184493  0.00856282     0.40300
C2096       C  0.12831754  0.88105831  0.96874359    -0.26800
O2097       O  0.07584815  0.85795327  0.94943449    -0.58700
H2098       H  0.07846270  0.86141267  0.02253552     0.15900
O2099       O  0.14495106  0.89009736  0.02759952    -0.60100
H2100       H  0.14226089  0.88649324  0.95361413     0.14300
H2101       H  0.13447100  0.82768050  0.83231895     0.46200
H2102       H  0.07930859  0.84275946  0.94571538     0.41600
H2103       H  0.15546967  0.87843728  0.02874457     0.45000
H2104       H  0.07001935  0.89043666  0.89667962     0.36500
C2105       C  0.14339920  0.87922059  0.38857332    -0.27700
C2106       C  0.12376079  0.87814865  0.40704245     0.01900
C2107       C  0.10525691  0.87611113  0.38500737     0.29900
C2108       C  0.10666624  0.87492611  0.34529618    -0.19500
C2109       C  0.12641440  0.87575233  0.32665239    -0.28900
C2110       C  0.14488906  0.87814384  0.34904324     0.44000
C2111       C  0.12291016  0.87903915  0.44923834     0.05200
O2112       O  0.08569766  0.87510454  0.40198046    -0.57500
H2113       H  0.09219569  0.87342806  0.32911475     0.18100
O2114       O  0.16464163  0.87933878  0.33283603    -0.64200
H2115       H  0.15776667  0.88115413  0.40492459     0.16600
C2116       C  0.13553066  0.86545179  0.47158465     0.28800
C2117       C  0.13410352  0.86613303  0.51124578    -0.25100
C2118       C  0.11983169  0.87991726  0.52933133    -0.24300
C2119       C  0.10777177  0.89401725  0.50707201     0.40300
C2120       C  0.10942218  0.89355333  0.46745728    -0.26800
O2121       O  0.14867833  0.85081500  0.45492526    -0.58700
H2122       H  0.14328041  0.85496783  0.52778515     0.15900
O2123       O  0.09395796  0.90802256  0.52375044    -0.60100
H2124       H  0.09996938  0.90446143  0.45088659     0.14300
H2125       H  0.16770318  0.89470833  0.33073972     0.46200
H2126       H  0.13974699  0.83809547  0.45094562     0.41600
H2127       H  0.10239182  0.92101595  0.52831040     0.45000
H2128       H  0.08336235  0.85986295  0.40734135     0.36500
C2129       C  0.27235980  0.67590995  0.92737619    -0.27700
C2130       C  0.25799225  0.65889633  0.92669554     0.01900
C2131       C  0.26467278  0.63936814  0.91143151     0.29900
C2132       C  0.28580012  0.63645438  0.90050523    -0.19500
C2133       C  0.30068792  0.65278690  0.90437454    -0.28900
C2134       C  0.29365171  0.67295417  0.91626332     0.44000
C2135       C  0.23645906  0.66075103  0.94384817     0.05200
O2136       O  0.25066888  0.62285882  0.90792736    -0.57500
H2137       H  0.29089608  0.62086491  0.89130315     0.18100
O2138       O  0.30783754  0.68916457  0.92099279    -0.64200
H2139       H  0.26739695  0.69110679  0.93862234     0.16600
C2140       C  0.23039543  0.64720894  0.97382763     0.28800
C2141       C  0.20901358  0.64526162  0.98401036    -0.25100
C2142       C  0.19345332  0.65722277  0.96557235    -0.24300
C2143       C  0.19974009  0.67239271  0.93840245     0.40300
C2144       C  0.22114928  0.67406770  0.92763925    -0.26800
O2145       O  0.24509276  0.63463675  0.99146691    -0.58700
H2146       H  0.20441810  0.63332431  0.00452474     0.15900
O2147       O  0.18482241  0.68392138  0.91915426    -0.60100
H2148       H  0.22553658  0.68464654  0.90473748     0.14300
H2149       H  0.30683054  0.69770709  0.89747367     0.46200
H2150       H  0.25164306  0.64383128  0.01096926     0.41600
H2151       H  0.18139404  0.69604300  0.93599995     0.45000
H2152       H  0.25485391  0.61239813  0.92750955     0.36500
C2153       C  0.01070897  0.62464983  0.86018482    -0.27700
C2154       C  0.99345022  0.63191747  0.88162596     0.01900
C2155       C  0.99706446  0.64110456  0.91732906     0.29900
C2156       C  0.01775554  0.64327438  0.93099400    -0.19500
C2157       C  0.03527476  0.63634790  0.90949767    -0.28900
C2158       C  0.03148530  0.62665893  0.87388216     0.44000
C2159       C  0.97167735  0.63098640  0.86623647     0.05200
O2160       O  0.98036365  0.64778445  0.93930562    -0.57500
H2161       H  0.02004330  0.65038832  0.95863346     0.18100
O2162       O  0.04793567  0.61966405  0.85163084    -0.64200
H2163       H  0.00808300  0.61764305  0.83254519     0.16600
C2164       C  0.96227718  0.64929832  0.85115881     0.28800
C2165       C  0.94066813  0.64946178  0.84255935    -0.25100
C2166       C  0.92802531  0.63137093  0.84834621    -0.24300
C2167       C  0.93789840  0.61250687  0.86084403     0.40300
C2168       C  0.95955017  0.61249496  0.86996748    -0.26800
O2169       O  0.97389292  0.66747012  0.84651985    -0.58700
H2170       H  0.93366492  0.66405929  0.83237724     0.15900
O2171       O  0.92632423  0.59444163  0.86690942    -0.60100
H2172       H  0.96668237  0.59827511  0.88147887     0.14300
H2173       H  0.04931478  0.60434648  0.85740490     0.46200
H2174       H  0.98062190  0.66607602  0.82117680     0.41600
H2175       H  0.92722249  0.58643431  0.84275097     0.45000
H2176       H  0.97831358  0.66291404  0.93268741     0.36500
C2177       C  0.08672290  0.73509754  0.05151908    -0.27700
C2178       C  0.10579870  0.74647922  0.05113559     0.01900
C2179       C  0.12337380  0.73764476  0.03205187     0.29900
C2180       C  0.12165131  0.71782019  0.01386057    -0.19500
C2181       C  0.10249231  0.70628606  0.01431765    -0.28900
C2182       C  0.08495707  0.71530544  0.03374010     0.44000
C2183       C  0.10658354  0.76780331  0.06972256     0.05200
O2184       O  0.14232095  0.74823104  0.03100126    -0.57500
H2185       H  0.13554539  0.71129814  0.99999809     0.18100
O2186       O  0.06593326  0.70489541  0.03604318    -0.64200
H2187       H  0.07305761  0.74148475  0.06630840     0.16600
C2188       C  0.09201729  0.78360838  0.05922281     0.28800
C2189       C  0.09165825  0.80310211  0.07817047    -0.25100
C2190       C  0.10572571  0.80761408  0.10804479    -0.24300
C2191       C  0.12071629  0.79196462  0.11808886     0.40300
C2192       C  0.12102386  0.77225087  0.09905734    -0.26800
O2193       O  0.07856956  0.78043282  0.02926387    -0.58700
H2194       H  0.08045500  0.81496647  0.06866707     0.15900
O2195       O  0.13505228  0.79565798  0.14642629    -0.60100
H2196       H  0.13233703  0.76028139  0.10765004     0.14300
H2197       H  0.06610804  0.69759565  0.06095550     0.46200
H2198       H  0.06438131  0.77821928  0.04076376     0.41600
H2199       H  0.12770960  0.79144212  0.17016014     0.45000
H2200       H  0.14178572  0.75697257  0.00766396     0.36500
C2201       C  0.22970571  0.63690829  0.46185798    -0.27700
C2202       C  0.23670151  0.65708748  0.45085899     0.01900
C2203       C  0.22292534  0.67452132  0.45565121     0.29900
C2204       C  0.20181593  0.67118347  0.46743894    -0.19500
C2205       C  0.19432166  0.65059959  0.47454429    -0.28900
C2206       C  0.20876939  0.63355200  0.47328500     0.44000
C2207       C  0.25775621  0.65879543  0.43179852     0.05200
O2208       O  0.22925953  0.69448748  0.44536972    -0.57500
H2209       H  0.19088556  0.68442865  0.46769645     0.18100
O2210       O  0.20221324  0.61329409  0.48130818    -0.64200
H2211       H  0.24025443  0.62339955  0.45956155     0.16600
C2212       C  0.27409393  0.67165852  0.44620268     0.28800
C2213       C  0.29485323  0.66937379  0.43225576    -0.25100
C2214       C  0.29966709  0.65402524  0.40467113    -0.24300
C2215       C  0.28311083  0.64245931  0.38813826     0.40300
C2216       C  0.26235055  0.64502620  0.40142529    -0.26800
O2217       O  0.27041078  0.68502598  0.47617301    -0.58700
H2218       H  0.30755528  0.67799298  0.44591709     0.15900
O2219       O  0.28736517  0.62704546  0.36174630    -0.60100
H2220       H  0.24998225  0.63511143  0.38973521     0.14300
H2221       H  0.20116804  0.60603842  0.45641464     0.46200
H2222       H  0.27321911  0.67643555  0.49915910     0.41600
H2223       H  0.28914212  0.63472331  0.33741249     0.45000
H2224       H  0.23068262  0.70240888  0.46952398     0.36500
C2225       C  0.96130687  0.61467432  0.36338002    -0.27700
C2226       C  0.97275022  0.63370900  0.36149415     0.01900
C2227       C  0.96262196  0.65201567  0.34787762     0.29900
C2228       C  0.94105516  0.65152356  0.33881595    -0.19500
C2229       C  0.92902389  0.63291284  0.34331993    -0.28900
C2230       C  0.93962840  0.61412656  0.35427905     0.44000
C2231       C  0.99462741  0.63500321  0.37678028     0.05200
O2232       O  0.97373248  0.67054866  0.34362765    -0.57500
H2233       H  0.93358208  0.66607037  0.32951329     0.18100
O2234       O  0.92876535  0.59548296  0.35871365    -0.64200
H2235       H  0.96895951  0.60041586  0.37360298     0.16600
C2236       C  0.99881009  0.64752302  0.40891787     0.28800
C2237       C  0.01954123  0.64971620  0.42224704    -0.25100
C2238       C  0.03662084  0.63935643  0.40433420    -0.24300
C2239       C  0.03228949  0.62634095  0.37253653     0.40300
C2240       C  0.01142057  0.62418463  0.35919492    -0.26800
O2241       O  0.98265324  0.65772391  0.42761128    -0.58700
H2242       H  0.02217079  0.65955133  0.44695959     0.15900
O2243       O  0.04821694  0.61552230  0.35436470    -0.60100
H2244       H  0.00839524  0.61433414  0.33464049     0.14300
H2245       H  0.93041909  0.58794608  0.33419497     0.46200
H2246       H  0.97670795  0.64704109  0.44530092     0.41600
H2247       H  0.05276753  0.62490710  0.33330651     0.45000
H2248       H  0.96905422  0.67977477  0.36484460     0.36500
C2249       C  0.09793703  0.65096067  0.74030893    -0.27700
C2250       C  0.11371597  0.64134414  0.71796954     0.01900
C2251       C  0.13087030  0.63129627  0.73561509     0.29900
C2252       C  0.13224702  0.63105426  0.77502687    -0.19500
C2253       C  0.11661956  0.64073451  0.79779658    -0.28900
C2254       C  0.09931445  0.65078706  0.78002330     0.44000
C2255       C  0.11224141  0.64149976  0.67621484     0.05200
O2256       O  0.14633020  0.62149073  0.71449933    -0.57500
H2257       H  0.14561569  0.62301508  0.78776805     0.18100
O2258       O  0.08384324  0.66066016  0.80098022    -0.64200
H2259       H  0.08466950  0.65881848  0.72688372     0.16600
C2260       C  0.09565289  0.63096012  0.65772052     0.28800
C2261       C  0.09494863  0.63059689  0.61810581    -0.25100
C2262       C  0.11062578  0.64078598  0.59631350    -0.24300
C2263       C  0.12733523  0.65127757  0.61504390     0.40300
C2264       C  0.12808480  0.65145783  0.65468734    -0.26800
O2265       O  0.08047316  0.62036166  0.67815983    -0.58700
H2266       H  0.08199363  0.62240090  0.60440099     0.15900
O2267       O  0.14269617  0.66188935  0.59504719    -0.60100
H2268       H  0.14095510  0.65960817  0.66874926     0.14300
H2269       H  0.08862644  0.67555466  0.80350557     0.46200
H2270       H  0.06835346  0.63032154  0.68002591     0.41600
H2271       H  0.13681899  0.67626271  0.59068135     0.45000
H2272       H  0.14116213  0.60682110  0.71059628     0.36500
C2273       C  0.10324328  0.62802240  0.15934001    -0.27700
C2274       C  0.11779256  0.64200187  0.17579720     0.01900
C2275       C  0.13135598  0.65388599  0.15214631     0.29900
C2276       C  0.12981171  0.65211250  0.11267929    -0.19500
C2277       C  0.11464660  0.63874954  0.09616028    -0.28900
C2278       C  0.10160641  0.62631501  0.11993029     0.44000
C2279       C  0.11923378  0.64343168  0.21764706     0.05200
O2280       O  0.14579414  0.66769261  0.16731991    -0.57500
H2281       H  0.13984630  0.66195806  0.09499385     0.18100
O2282       O  0.08701928  0.61260001  0.10496239    -0.64200
H2283       H  0.09313801  0.61832489  0.17714576     0.16600
C2284       C  0.10140201  0.64814502  0.24030981     0.28800
C2285       C  0.10316989  0.64849966  0.27998358    -0.25100
C2286       C  0.12259991  0.64405613  0.29770465    -0.24300
C2287       C  0.14048671  0.63956136  0.27453322     0.40300
C2288       C  0.13862348  0.63925619  0.23511900    -0.26800
O2289       O  0.08233636  0.65295592  0.22385632    -0.58700
H2290       H  0.08923890  0.65210451  0.29683650     0.15900
O2291       O  0.15976559  0.63448816  0.28991193    -0.60100
H2292       H  0.15238435  0.63525763  0.21807022     0.14300
H2293       H  0.09473847  0.59903324  0.10156603     0.46200
H2294       H  0.07342602  0.64017337  0.22742011     0.41600
H2295       H  0.16801727  0.64785058  0.28948047     0.45000
H2296       H  0.13790385  0.68112521  0.17115278     0.36500
C2297       C  0.12071975  0.77381901  0.59833744    -0.27700
C2298       C  0.10667458  0.76963895  0.56826520     0.01900
C2299       C  0.09248193  0.78566892  0.55714177     0.29900
C2300       C  0.09212896  0.80508547  0.57607690    -0.19500
C2301       C  0.10608043  0.80948362  0.60612932    -0.28900
C2302       C  0.12055375  0.79356795  0.61714036     0.44000
C2303       C  0.10611490  0.74849953  0.54912907     0.05200
O2304       O  0.07899322  0.78266158  0.52720749    -0.57500
H2305       H  0.08114584  0.81705023  0.56617578     0.18100
O2306       O  0.13451613  0.79703678  0.64616356    -0.64200
H2307       H  0.13165581  0.76165571  0.60758932     0.16600
C2308       C  0.12439869  0.73896514  0.53355753     0.28800
C2309       C  0.12302770  0.71920193  0.51519225    -0.25100
C2310       C  0.10347063  0.70862232  0.51149303    -0.24300
C2311       C  0.08511145  0.71864287  0.52629751     0.40300
C2312       C  0.08663535  0.73807009  0.54517324    -0.26800
O2313       O  0.14370032  0.74879033  0.53611487    -0.58700
H2314       H  0.13743580  0.71197114  0.50452278     0.15900
O2315       O  0.06553437  0.70935659  0.52374634    -0.60100
H2316       H  0.07237844  0.74499655  0.55711266     0.14300
H2317       H  0.12654109  0.79356145  0.66963422     0.46200
H2318       H  0.14431647  0.75852549  0.51407105     0.41600
H2319       H  0.05963488  0.71439071  0.49932759     0.45000
H2320       H  0.08721275  0.78686817  0.50440211     0.36500
C2321       C  0.16685309  0.27984766  0.80623450    -0.27700
C2322       C  0.14957063  0.26578795  0.80834082     0.01900
C2323       C  0.12982733  0.27252004  0.79405581     0.29900
C2324       C  0.12697280  0.29344354  0.78228297    -0.19500
C2325       C  0.14363989  0.30810199  0.78351976    -0.28900
C2326       C  0.16398686  0.30091645  0.79382957     0.44000
C2327       C  0.15131500  0.24466233  0.82731868     0.05200
O2328       O  0.11280457  0.25903033  0.79340208    -0.57500
H2329       H  0.11121498  0.29861276  0.77437072     0.18100
O2330       O  0.18074990  0.31470537  0.79475043    -0.64200
H2331       H  0.18225830  0.27494007  0.81641682     0.16600
C2332       C  0.16637749  0.22933100  0.81608792     0.28800
C2333       C  0.16436988  0.20824436  0.82868724    -0.25100
C2334       C  0.14737423  0.20222457  0.85220505    -0.24300
C2335       C  0.13378240  0.21797872  0.86651996     0.40300
C2336       C  0.13597687  0.23897992  0.85452705    -0.26800
O2337       O  0.18203461  0.23433192  0.79056487    -0.58700
H2338       H  0.17480621  0.19624123  0.81699589     0.15900
O2339       O  0.11693597  0.21262297  0.88924287    -0.60100
H2340       H  0.12463329  0.25063311  0.86450868     0.14300
H2341       H  0.18058020  0.32083646  0.82064883     0.46200
H2342       H  0.17583786  0.23153276  0.76525789     0.41600
H2343       H  0.12287308  0.21148768  0.91515499     0.45000
H2344       H  0.11337832  0.25214829  0.76813725     0.36500
C2345       C  0.11059685  0.49287293  0.88759897    -0.27700
C2346       C  0.12479201  0.50835623  0.87442750     0.01900
C2347       C  0.14091396  0.50238605  0.84888451     0.29900
C2348       C  0.14286702  0.48132134  0.83722829    -0.19500
C2349       C  0.12883709  0.46563079  0.85038150    -0.28900
C2350       C  0.11251122  0.47164614  0.87583213     0.44000
C2351       C  0.12327329  0.53069809  0.88757411     0.05200
O2352       O  0.15487012  0.51711985  0.83491606    -0.57500
H2353       H  0.15547390  0.47733890  0.81754020     0.18100
O2354       O  0.09842657  0.45699126  0.88959977    -0.64200
H2355       H  0.09813978  0.49721511  0.90735392     0.16600
C2356       C  0.10531399  0.54327924  0.88013841     0.28800
C2357       C  0.10556593  0.56505478  0.88858098    -0.25100
C2358       C  0.12372455  0.57466889  0.90405038    -0.24300
C2359       C  0.14122069  0.56169299  0.91327208     0.40300
C2360       C  0.14087327  0.54002579  0.90499962    -0.26800
O2361       O  0.08784446  0.53467428  0.86303130    -0.58700
H2362       H  0.09190662  0.57459601  0.88123709     0.15900
O2363       O  0.15907250  0.57007793  0.92942388    -0.60100
H2364       H  0.15471585  0.53050542  0.91130370     0.14300
H2365       H  0.08625384  0.45743414  0.87192611     0.46200
H2366       H  0.09054628  0.53600901  0.83540798     0.41600
H2367       H  0.15619876  0.57009078  0.95709256     0.45000
H2368       H  0.14758231  0.52362813  0.81293956     0.36500
C2369       C  0.15833844  0.28263902  0.31867003    -0.27700
C2370       C  0.14219347  0.26870861  0.30759460     0.01900
C2371       C  0.12594967  0.27610866  0.28365564     0.29900
C2372       C  0.12498498  0.29751665  0.27388909    -0.19500
C2373       C  0.14033191  0.31167317  0.28699542    -0.28900
C2374       C  0.15748165  0.30406456  0.30847321     0.44000
C2375       C  0.14132860  0.24697225  0.32326731     0.05200
O2376       O  0.11026804  0.26275827  0.27143158    -0.57500
H2377       H  0.11150681  0.30332979  0.25802031     0.18100
O2378       O  0.17209769  0.31783283  0.32321230    -0.64200
H2379       H  0.17086793  0.27718948  0.33718763     0.16600
C2380       C  0.15799729  0.23246582  0.31753771     0.28800
C2381       C  0.15566601  0.21135986  0.32920037    -0.25100
C2382       C  0.13669423  0.20448172  0.34600321    -0.24300
C2383       C  0.12051294  0.21923255  0.35346735     0.40300
C2384       C  0.12298616  0.24035192  0.34252263    -0.26800
O2385       O  0.17598268  0.23838786  0.29835088    -0.58700
H2386       H  0.16794930  0.19998778  0.32219055     0.15900
O2387       O  0.10161204  0.21279414  0.36890918    -0.60100
H2388       H  0.11013668  0.25141626  0.34755958     0.14300
H2389       H  0.18272061  0.31987036  0.30275387     0.46200
H2390       H  0.17233506  0.23724029  0.27108988     0.41600
H2391       H  0.10333733  0.21451615  0.39667684     0.45000
H2392       H  0.11609888  0.25588148  0.24835077     0.36500
C2393       C  0.14179988  0.54223826  0.40488651    -0.27700
C2394       C  0.12371876  0.53292783  0.38932915     0.01900
C2395       C  0.10543835  0.54521974  0.38356553     0.29900
C2396       C  0.10585034  0.56698563  0.39132804    -0.19500
C2397       C  0.12450237  0.57667409  0.40441656    -0.28900
C2398       C  0.14228787  0.56388995  0.41264715     0.44000
C2399       C  0.12521999  0.51114249  0.37475379     0.05200
O2400       O  0.08750334  0.53630898  0.36863072    -0.57500
H2401       H  0.09195634  0.57644467  0.38512554     0.18100
O2402       O  0.16053178  0.57248185  0.42699052    -0.64200
H2403       H  0.15589163  0.53278804  0.40962025     0.16600
C2404       C  0.13766589  0.50699364  0.34251113     0.28800
C2405       C  0.13980823  0.48630897  0.32917196    -0.25100
C2406       C  0.12972712  0.46936979  0.34771904    -0.24300
C2407       C  0.11700477  0.47365206  0.37999851     0.40300
C2408       C  0.11487486  0.49447928  0.39328348    -0.26800
O2409       O  0.14740863  0.52321827  0.32333294    -0.58700
H2410       H  0.14938249  0.48360017  0.30406648     0.15900
O2411       O  0.10705017  0.45764400  0.39938829    -0.60100
H2412       H  0.10535036  0.49760707  0.41830313     0.14300
H2413       H  0.15857410  0.57237687  0.45490794     0.46200
H2414       H  0.16210780  0.52355441  0.33313273     0.41600
H2415       H  0.09245015  0.45723138  0.38912641     0.45000
H2416       H  0.08937794  0.53716152  0.34073352     0.36500
C2417       C  0.14031792  0.41072537  0.59765432    -0.27700
C2418       C  0.13493938  0.39201075  0.57887512     0.01900
C2419       C  0.12946710  0.37394567  0.60032501     0.29900
C2420       C  0.12918589  0.37491124  0.64009819    -0.19500
C2421       C  0.13418224  0.39383592  0.65896775    -0.28900
C2422       C  0.14007644  0.41177157  0.63716526     0.44000
C2423       C  0.13584181  0.39142985  0.53691878     0.05200
O2424       O  0.12432215  0.35530544  0.58264286    -0.57500
H2425       H  0.12485937  0.36092091  0.65612697     0.18100
O2426       O  0.14677252  0.43014191  0.65414926    -0.64200
H2427       H  0.14516014  0.42454004  0.58157239     0.16600
C2428       C  0.12418476  0.40590576  0.51475801     0.28800
C2429       C  0.12506516  0.40474288  0.47508830    -0.25100
C2430       C  0.13734631  0.38911448  0.45705722    -0.24300
C2431       C  0.14977236  0.37535624  0.47932562     0.40300
C2432       C  0.14888896  0.37653507  0.51885828    -0.26800
O2433       O  0.11142414  0.42082421  0.53159863    -0.58700
H2434       H  0.11536918  0.41542563  0.45847693     0.15900
O2435       O  0.16268034  0.36049981  0.46270215    -0.60100
H2436       H  0.15841944  0.36573513  0.53552470     0.14300
H2437       H  0.13451911  0.43995950  0.65278900     0.46200
H2438       H  0.09755752  0.41372823  0.53526033     0.41600
H2439       H  0.17630902  0.36789310  0.45813647     0.41800
H2440       H  0.10869601  0.35567513  0.57995102     0.36500
C2441       C  0.12097890  0.37412654  0.10287857    -0.27700
C2442       C  0.13260873  0.38782494  0.07932683     0.01900
C2443       C  0.14505375  0.40380332  0.09579585     0.29900
C2444       C  0.14556909  0.40610733  0.13513553    -0.19500
C2445       C  0.13399823  0.39244513  0.15889444    -0.28900
C2446       C  0.12161414  0.37632157  0.14242335     0.44000
C2447       C  0.13184486  0.38544255  0.03759719     0.05200
O2448       O  0.15701172  0.41710303  0.07364167    -0.57500
H2449       H  0.15541082  0.41845161  0.14711213     0.18100
O2450       O  0.10986512  0.36284140  0.16456790    -0.64200
H2451       H  0.11118896  0.36185914  0.09054358     0.16600
C2452       C  0.13780793  0.36633432  0.02005309     0.28800
C2453       C  0.13791377  0.36477601  0.98047040    -0.25100
C2454       C  0.13192073  0.38205972  0.95767650    -0.24300
C2455       C  0.12562698  0.40112580  0.97547595     0.40300
C2456       C  0.12573438  0.40269495  0.01505225    -0.26800
O2457       O  0.14443155  0.34940075  0.04133228    -0.58700
H2458       H  0.14282606  0.34996195  0.96761989     0.15900
O2459       O  0.11908251  0.41826365  0.95464909    -0.60100
H2460       H  0.12088961  0.41743754  0.02826839     0.14300
H2461       H  0.09581359  0.36974583  0.16718047     0.46200
H2462       H  0.13226369  0.33947591  0.04178546     0.41600
H2463       H  0.10368024  0.41611228  0.95075676     0.45000
H2464       H  0.17074378  0.40969550  0.07011414     0.36500
C2465       C  0.32937647  0.27817702  0.57043156    -0.27700
C2466       C  0.34634569  0.26380929  0.57186312     0.01900
C2467       C  0.36562721  0.27018535  0.58813519     0.29900
C2468       C  0.36830968  0.29109211  0.60000016    -0.19500
C2469       C  0.35188478  0.30592048  0.59626637    -0.28900
C2470       C  0.33210186  0.29924077  0.58232107     0.44000
C2471       C  0.34454910  0.24245231  0.55494555     0.05200
O2472       O  0.38233101  0.25634021  0.59071179    -0.57500
H2473       H  0.38372976  0.29609127  0.61001794     0.18100
O2474       O  0.31598817  0.31353882  0.57717787    -0.64200
H2475       H  0.31443571  0.27338860  0.55810457     0.16600
C2476       C  0.33150589  0.22695348  0.57151152     0.28800
C2477       C  0.33336891  0.20579168  0.55998897    -0.25100
C2478       C  0.34816397  0.19993870  0.53206470    -0.24300
C2479       C  0.36006675  0.21564814  0.51358484     0.40300
C2480       C  0.35811897  0.23680172  0.52489891    -0.26800
O2481       O  0.31868838  0.23192769  0.60171728    -0.58700
H2482       H  0.32464303  0.19369663  0.57526107     0.15900
O2483       O  0.37506692  0.21022650  0.48704663    -0.60100
H2484       H  0.36823150  0.24864178  0.51191979     0.14300
H2485       H  0.31811725  0.31925865  0.55124149     0.46200
H2486       H  0.30456257  0.23469583  0.59056492     0.41600
H2487       H  0.36709638  0.20811865  0.46316613     0.45000
H2488       H  0.38000160  0.24854125  0.61477433     0.36500
C2489       C  0.45943117  0.39599856  0.50657584    -0.27700
C2490       C  0.47191753  0.37840229  0.51599636     0.01900
C2491       C  0.46255822  0.36099006  0.53433798     0.29900
C2492       C  0.44072263  0.36076414  0.54100942    -0.19500
C2493       C  0.42789424  0.37778712  0.52956032    -0.28900
C2494       C  0.43753482  0.39584165  0.51334922     0.44000
C2495       C  0.49402412  0.37712174  0.50236203     0.05200
O2496       O  0.47468403  0.34403915  0.54541712    -0.57500
H2497       H  0.43373505  0.34695412  0.55432256     0.18100
O2498       O  0.42556441  0.41266716  0.50126298    -0.64200
H2499       H  0.46650594  0.40942455  0.49218861     0.16600
C2500       C  0.49945831  0.36237666  0.47408206     0.28800
C2501       C  0.52025524  0.36111586  0.46081161    -0.25100
C2502       C  0.53607092  0.37459533  0.47500273    -0.24300
C2503       C  0.53054975  0.38949155  0.50342280     0.40300
C2504       C  0.50957777  0.39075865  0.51663568    -0.26800
O2505       O  0.48441585  0.34925373  0.45883473    -0.58700
H2506       H  0.52390277  0.34958460  0.43897683     0.15900
O2507       O  0.54528702  0.40324936  0.51778281    -0.60100
H2508       H  0.50546140  0.40232188  0.53816647     0.14300
H2509       H  0.42599907  0.42306271  0.52233980     0.46200
H2510       H  0.47790393  0.35751764  0.43798917     0.41600
H2511       H  0.55060841  0.39637318  0.54117195     0.45000
H2512       H  0.47138138  0.33252653  0.52723551     0.36500
C2513       C  0.38487601  0.53796744  0.48650827    -0.27700
C2514       C  0.36566898  0.52729456  0.49261283     0.01900
C2515       C  0.34649710  0.53805694  0.48619005     0.29900
C2516       C  0.34664729  0.55941169  0.47599250    -0.19500
C2517       C  0.36579584  0.57062486  0.47191546    -0.28900
C2518       C  0.38508164  0.55945495  0.47625412     0.44000
C2519       C  0.36548817  0.50544329  0.50804554     0.05200
O2520       O  0.32742342  0.52798326  0.49096933    -0.57500
H2521       H  0.33155505  0.56734600  0.47252416     0.18100
O2522       O  0.40421585  0.56938193  0.47135126    -0.64200
H2523       H  0.39977693  0.52988057  0.49123549     0.16600
C2524       C  0.37608098  0.48867695  0.48973485     0.28800
C2525       C  0.37463700  0.46805294  0.50432773    -0.25100
C2526       C  0.36282374  0.46380752  0.53744267    -0.24300
C2527       C  0.35257102  0.48083033  0.55604802     0.40300
C2528       C  0.35409027  0.50134071  0.54144619    -0.26800
O2529       O  0.38708201  0.49213383  0.45669360    -0.58700
H2530       H  0.38270610  0.45535236  0.48945489     0.15900
O2531       O  0.34121180  0.47776880  0.58883147    -0.60100
H2532       H  0.34618603  0.51416996  0.55627512     0.14300
H2533       H  0.40867608  0.57372137  0.49715001     0.46200
H2534       H  0.40223317  0.49208864  0.46402914     0.41600
H2535       H  0.32629665  0.47610869  0.58060896     0.45000
H2536       H  0.32475085  0.52066526  0.46656718     0.36500
C2537       C  0.27556203  0.40781233  0.70020630    -0.27700
C2538       C  0.25909426  0.39526744  0.68626236     0.01900
C2539       C  0.26268228  0.38302376  0.65329747     0.29900
C2540       C  0.28257600  0.38361541  0.63485052    -0.19500
C2541       C  0.29899741  0.39649330  0.64872001    -0.28900
C2542       C  0.29522196  0.40850973  0.68202536     0.44000
C2543       C  0.23823611  0.39602004  0.70620402     0.05200
O2544       O  0.24659372  0.37123584  0.63800857    -0.57500
H2545       H  0.28506430  0.37420204  0.60952545     0.18100
O2546       O  0.31102598  0.42025699  0.69838570    -0.64200
H2547       H  0.27321259  0.41709353  0.72575447     0.16600
C2548       C  0.22870754  0.37777802  0.72167484     0.28800
C2549       C  0.20921115  0.37930060  0.74094807    -0.25100
C2550       C  0.19897874  0.39899045  0.74580126    -0.24300
C2551       C  0.20926075  0.41738042  0.73187129     0.40300
C2552       C  0.22848804  0.41572573  0.71219052    -0.26800
O2553       O  0.23834081  0.35838984  0.71829463    -0.58700
H2554       H  0.20186212  0.36490494  0.75127519     0.15900
O2555       O  0.20043669  0.43710948  0.73619095    -0.60100
H2556       H  0.23579448  0.43000564  0.70120608     0.14300
H2557       H  0.30830948  0.43507501  0.69038818     0.46200
H2558       H  0.24808482  0.35745393  0.74022356     0.41600
H2559       H  0.20550272  0.44221980  0.76115583     0.45000
H2560       H  0.25036300  0.35626617  0.64324519     0.36500
C2561       C  0.33366492  0.22981428  0.06239207    -0.27700
C2562       C  0.35033844  0.24410603  0.05554712     0.01900
C2563       C  0.36754899  0.23733673  0.03284149     0.29900
C2564       C  0.36893656  0.21623078  0.02082460    -0.19500
C2565       C  0.35305797  0.20156288  0.03001457    -0.28900
C2566       C  0.33490784  0.20869875  0.04963515     0.44000
C2567       C  0.35078137  0.26540017  0.07422782     0.05200
O2568       O  0.38373717  0.25096365  0.02396142    -0.57500
H2569       H  0.38315958  0.21096137  0.00628869     0.18100
O2570       O  0.31948658  0.19461173  0.06032763    -0.64200
H2571       H  0.32029522  0.23461389  0.07973021     0.16600
C2572       C  0.33397467  0.28006267  0.07085335     0.28800
C2573       C  0.33637152  0.30094426  0.08432817    -0.25100
C2574       C  0.35550099  0.30752670  0.10084596    -0.24300
C2575       C  0.37152224  0.29239727  0.10697348     0.40300
C2576       C  0.36903088  0.27158319  0.09408298    -0.26800
O2577       O  0.31575013  0.27463091  0.05220415    -0.58700
H2578       H  0.32401752  0.31244954  0.07876002     0.15900
O2579       O  0.39040591  0.29824040  0.12297871    -0.60100
H2580       H  0.38190248  0.26044129  0.09805726     0.14300
H2581       H  0.30921276  0.19458303  0.03913274     0.46200
H2582       H  0.31888683  0.27694832  0.02493868     0.41600
H2583       H  0.38794418  0.29754080  0.15074083     0.45000
H2584       H  0.37919700  0.25813713  0.00033406     0.36500
C2585       C  0.50154733  0.36408749  0.97529112    -0.27700
C2586       C  0.49756849  0.37743849  0.00623339     0.01900
C2587       C  0.51444804  0.38866323  0.02257222     0.29900
C2588       C  0.53506962  0.38630329  0.00799610    -0.19500
C2589       C  0.53914257  0.37299005  0.97669935    -0.28900
C2590       C  0.52196146  0.36193286  0.96026978     0.44000
C2591       C  0.47564325  0.37891553  0.02114427     0.05200
O2592       O  0.51105069  0.40136010  0.05357138    -0.57500
H2593       H  0.54786436  0.39498498  0.02120687     0.18100
O2594       O  0.52485485  0.34871142  0.92979103    -0.64200
H2595       H  0.48864367  0.35535531  0.96247845     0.16600
C2596       C  0.46331835  0.39731411  0.01618973     0.28800
C2597       C  0.44155157  0.39699427  0.02470724    -0.25100
C2598       C  0.43177837  0.37833844  0.03777918    -0.24300
C2599       C  0.44460741  0.36042083  0.04522831     0.40300
C2600       C  0.46622039  0.36077584  0.03653810    -0.26800
O2601       O  0.47213958  0.41529094  0.00109378    -0.58700
H2602       H  0.43211606  0.41095608  0.01886734     0.15900
O2603       O  0.43606141  0.34211159  0.05957996    -0.60100
H2604       H  0.47557363  0.34655707  0.04067907     0.14300
H2605       H  0.52178502  0.35753102  0.90718870     0.46200
H2606       H  0.47083320  0.41364305  0.97322960     0.41600
H2607       H  0.43603797  0.34404964  0.08749035     0.45000
H2608       H  0.51063515  0.41601566  0.04348017     0.36500
C2609       C  0.34888954  0.53940133  0.96729913    -0.27700
C2610       C  0.36645461  0.52867061  0.98241636     0.01900
C2611       C  0.38534904  0.54021843  0.98820420     0.29900
C2612       C  0.38603622  0.56212233  0.98099518    -0.19500
C2613       C  0.36794639  0.57308931  0.96865958    -0.28900
C2614       C  0.34942849  0.56130251  0.96075841     0.44000
C2615       C  0.36436794  0.50603308  0.99487909     0.05200
O2616       O  0.40298662  0.53049920  0.00267712    -0.57500
H2617       H  0.40047440  0.57071997  0.98707866     0.18100
O2618       O  0.33148688  0.57107574  0.94755968    -0.64200
H2619       H  0.33441264  0.53084890  0.96136707     0.16600
C2620       C  0.34728818  0.49960172  0.01812269     0.28800
C2621       C  0.34653567  0.47896042  0.03275507    -0.25100
C2622       C  0.36247260  0.46402362  0.02455230    -0.24300
C2623       C  0.37906592  0.47013092  0.99978792     0.40300
C2624       C  0.37992381  0.49092008  0.98535883    -0.26800
O2625       O  0.33189096  0.51378093  0.02883411    -0.58700
H2626       H  0.33348168  0.47482014  0.05134563     0.15900
O2627       O  0.39504982  0.45627843  0.99071165    -0.60100
H2628       H  0.39298547  0.49530782  0.96697356     0.14300
H2629       H  0.33313634  0.57136351  0.91958715     0.46200
H2630       H  0.31904852  0.50957793  0.01456743     0.41600
H2631       H  0.39062144  0.44959365  0.96655466     0.45000
H2632       H  0.40149633  0.53167546  0.03060497     0.36500
C2633       C  0.35433750  0.37088688  0.78293897    -0.27700
C2634       C  0.36832887  0.38353820  0.80395553     0.01900
C2635       C  0.38257543  0.39689276  0.78456914     0.29900
C2636       C  0.38212001  0.39799082  0.74488203    -0.19500
C2637       C  0.36776228  0.38572578  0.72391160    -0.28900
C2638       C  0.35402537  0.37182024  0.74329706     0.44000
C2639       C  0.36804952  0.38222385  0.84599265     0.05200
O2640       O  0.39748449  0.40829479  0.80411039    -0.57500
H2641       H  0.39295376  0.40860830  0.73045238     0.18100
O2642       O  0.33925269  0.36014001  0.72401279    -0.64200
H2643       H  0.34325778  0.36054169  0.79741038     0.16600
C2644       C  0.36568774  0.40038220  0.86892234     0.28800
C2645       C  0.36541707  0.39848875  0.90851492    -0.25100
C2646       C  0.36703425  0.37854498  0.92609167    -0.24300
C2647       C  0.36899425  0.36032438  0.90279426     0.40300
C2648       C  0.36945759  0.36232642  0.86334110    -0.26800
O2649       O  0.36322178  0.42003359  0.85297184    -0.58700
H2650       H  0.36379552  0.41273416  0.92542986     0.15900
O2651       O  0.37028048  0.34036698  0.91802319    -0.60100
H2652       H  0.37109478  0.34817979  0.84613774     0.14300
H2653       H  0.34585135  0.34601633  0.72035328     0.46200
H2654       H  0.34777021  0.42158261  0.84882437     0.41600
H2655       H  0.38563670  0.33706031  0.91886323     0.45000
H2656       H  0.39376629  0.42340469  0.80013694     0.36500
C2657       C  0.35174546  0.36807204  0.36262921    -0.27700
C2658       C  0.35981304  0.38655129  0.34589806     0.01900
C2659       C  0.36750319  0.40286886  0.36939272     0.29900
C2660       C  0.36704705  0.40056596  0.40891701    -0.19500
C2661       C  0.35933096  0.38190802  0.42570015    -0.28900
C2662       C  0.35150684  0.36563318  0.40208406     0.44000
C2663       C  0.35984550  0.38876894  0.30397335     0.05200
O2664       O  0.37593963  0.42094489  0.35396159    -0.57500
H2665       H  0.37341911  0.41312953  0.42643031     0.18100
O2666       O  0.34357181  0.34724682  0.41721076    -0.64200
H2667       H  0.34547531  0.35550900  0.34500677     0.16600
C2668       C  0.36991766  0.37370843  0.28053608     0.28800
C2669       C  0.36938588  0.37596327  0.24097967    -0.25100
C2670       C  0.35895696  0.39320662  0.22408604    -0.24300
C2671       C  0.34890526  0.40830593  0.24772795     0.40300
C2672       C  0.34935360  0.40594371  0.28720727    -0.26800
O2673       O  0.38101630  0.35718939  0.29612252    -0.58700
H2674       H  0.37737475  0.36428745  0.22349659     0.15900
O2675       O  0.33775060  0.42491595  0.23257261    -0.60100
H2676       H  0.34121926  0.41745879  0.30483407     0.14300
H2677       H  0.32841723  0.35025284  0.42245416     0.46200
H2678       H  0.37184567  0.34457732  0.29287444     0.41600
H2679       H  0.34735685  0.43729809  0.23433818     0.45000
H2680       H  0.39095614  0.41742692  0.34843907     0.36500
C2681       C  0.23407907  0.41118181  0.22488173    -0.27700
C2682       C  0.23779806  0.39353815  0.20132260     0.01900
C2683       C  0.22325856  0.37659310  0.20252574     0.29900
C2684       C  0.20496667  0.37799472  0.22511882    -0.19500
C2685       C  0.20038813  0.39636923  0.24631789    -0.28900
C2686       C  0.21557168  0.41276421  0.24693830     0.44000
C2687       C  0.25665173  0.39317639  0.17539855     0.05200
O2688       O  0.22614449  0.35900684  0.18022641    -0.57500
H2689       H  0.19358349  0.36518218  0.22380774     0.18100
O2690       O  0.21217188  0.43077911  0.26785397    -0.64200
H2691       H  0.24539541  0.42405522  0.22563810     0.16600
C2692       C  0.26168763  0.41071378  0.15221721     0.28800
C2693       C  0.28054710  0.41089869  0.13090775    -0.25100
C2694       C  0.29467465  0.39366412  0.13178128    -0.24300
C2695       C  0.28882005  0.37548939  0.15280444     0.40300
C2696       C  0.27010564  0.37543103  0.17443501    -0.26800
O2697       O  0.24814095  0.42768693  0.14993814    -0.58700
H2698       H  0.28451311  0.42496200  0.11477344     0.15900
O2699       O  0.30188660  0.35813055  0.15444982    -0.60100
H2700       H  0.26663849  0.36175408  0.19191940     0.14300
H2701       H  0.21669572  0.42712934  0.29394850     0.46200
H2702       H  0.25538693  0.43946434  0.16323547     0.41600
H2703       H  0.31099885  0.36049372  0.17690952     0.45000
H2704       H  0.21980461  0.36269997  0.15540127     0.36500
C2705       C  0.77106845  0.18158717  0.68159129    -0.27700
C2706       C  0.75583037  0.16537942  0.68029045     0.01900
C2707       C  0.76206007  0.14495898  0.66875985     0.29900
C2708       C  0.78328163  0.14066752  0.66035849    -0.19500
C2709       C  0.79879743  0.15650115  0.66314082    -0.28900
C2710       C  0.79246913  0.17728478  0.67279872     0.44000
C2711       C  0.73338057  0.16906059  0.69133378     0.05200
O2712       O  0.74754102  0.12883325  0.66692784    -0.57500
H2713       H  0.78782228  0.12455622  0.65340512     0.18100
O2714       O  0.80725292  0.19300386  0.67696469    -0.64200
H2715       H  0.76646618  0.19739498  0.69032895     0.16600
C2716       C  0.72681884  0.16765197  0.72958317     0.28800
C2717       C  0.70522966  0.16476305  0.73858476    -0.25100
C2718       C  0.69014468  0.16306499  0.70962032    -0.24300
C2719       C  0.69659445  0.16641455  0.67170945     0.40300
C2720       C  0.71800748  0.16931435  0.66284536    -0.26800
O2721       O  0.74153285  0.16748539  0.75808545    -0.58700
H2722       H  0.70058921  0.16206702  0.76779414     0.15900
O2723       O  0.68226556  0.16499717  0.64266422    -0.60100
H2724       H  0.72280632  0.17018878  0.63334294     0.14300
H2725       H  0.80938632  0.19884136  0.65112740     0.46200
H2726       H  0.74519898  0.15234715  0.76181446     0.41600
H2727       H  0.67486508  0.17886213  0.64234490     0.45000
H2728       H  0.74739151  0.12245572  0.69263141     0.36500
C2729       C  0.85154116  0.00307060  0.78921218    -0.27700
C2730       C  0.86432206  0.00826822  0.75803984     0.01900
C2731       C  0.87595582  0.99211057  0.73989211     0.29900
C2732       C  0.87470377  0.97110613  0.75308869    -0.19500
C2733       C  0.86189296  0.96581832  0.78451599    -0.28900
C2734       C  0.85032315  0.98224301  0.80260906     0.44000
C2735       C  0.86536464  0.03072161  0.74538343     0.05200
O2736       O  0.88851436  0.99666917  0.70915373    -0.57500
H2737       H  0.88380828  0.95895642  0.73866967     0.18100
O2738       O  0.83769436  0.97825233  0.83353104    -0.64200
H2739       H  0.84263700  0.01535792  0.80369614     0.16600
C2740       C  0.84697662  0.04134565  0.73341229     0.28800
C2741       C  0.84759257  0.06309824  0.72561177    -0.25100
C2742       C  0.86634107  0.07490407  0.73023238    -0.24300
C2743       C  0.88496329  0.06403280  0.74111911     0.40300
C2744       C  0.88435174  0.04214186  0.74846574    -0.26800
O2745       O  0.82827470  0.03054084  0.72928807    -0.58700
H2746       H  0.83307377  0.07084262  0.71694656     0.15900
O2747       O  0.90351165  0.07478413  0.74714140    -0.60100
H2748       H  0.89856903  0.03422289  0.75816974     0.14300
H2749       H  0.84683922  0.98084886  0.85586306     0.46200
H2750       H  0.81979837  0.03403771  0.75219870     0.41600
H2751       H  0.91161641  0.07337811  0.72312436     0.45000
H2752       H  0.87892163  0.99601630  0.68697904     0.36500
C2753       C  0.97972927  0.12925486  0.78523031    -0.27700
C2754       C  0.99691538  0.13676614  0.76371584     0.01900
C2755       C  0.99319624  0.14502373  0.72731718     0.29900
C2756       C  0.97258775  0.14610246  0.71312629    -0.19500
C2757       C  0.95518422  0.13903326  0.73463367    -0.28900
C2758       C  0.95894163  0.13042114  0.77104294     0.44000
C2759       C  0.01882747  0.13634211  0.77881746     0.05200
O2760       O  0.00980106  0.15142633  0.70484865    -0.57500
H2761       H  0.97029512  0.15240462  0.68486261     0.18100
O2762       O  0.94250416  0.12329017  0.79313493    -0.64200
H2763       H  0.98240562  0.12280802  0.81327808     0.16600
C2764       C  0.03002529  0.15536732  0.78384389     0.28800
C2765       C  0.05179010  0.15495137  0.79080692    -0.25100
C2766       C  0.06298730  0.13565775  0.79302021    -0.24300
C2767       C  0.05136274  0.11652817  0.79088766     0.40300
C2768       C  0.02943164  0.11701310  0.78397454    -0.26800
O2769       O  0.02001042  0.17454550  0.78002244    -0.58700
H2770       H  0.06002640  0.16994940  0.79290821     0.15900
O2771       O  0.06126568  0.09727930  0.79437456    -0.60100
H2772       H  0.02092165  0.10224097  0.78058117     0.14300
H2773       H  0.93765428  0.13584932  0.80769943     0.46200
H2774       H  0.01317475  0.17722970  0.80493422     0.41600
H2775       H  0.06422275  0.09259560  0.76802512     0.45000
H2776       H  0.00922725  0.16712890  0.70490048     0.36500
C2777       C  0.77159577  0.16338516  0.22559059    -0.27700
C2778       C  0.75583196  0.16118536  0.19810311     0.01900
C2779       C  0.76185082  0.15766431  0.15995101     0.29900
C2780       C  0.78336714  0.15491957  0.15041015    -0.19500
C2781       C  0.79890999  0.15552489  0.17869998    -0.28900
C2782       C  0.79289803  0.16057196  0.21620532     0.44000
C2783       C  0.73335433  0.15999882  0.21056732     0.05200
O2784       O  0.74679164  0.15552222  0.13228994    -0.57500
H2785       H  0.78771271  0.15085727  0.12155613     0.18100
O2786       O  0.80768551  0.16144296  0.24454111    -0.64200
H2787       H  0.76726824  0.16627479  0.25491711     0.16600
C2788       C  0.72693122  0.14428411  0.23665487     0.28800
C2789       C  0.70549964  0.14190490  0.24590441    -0.25100
C2790       C  0.69017008  0.15508498  0.22968771    -0.24300
C2791       C  0.69659975  0.17142662  0.20500120     0.40300
C2792       C  0.71808677  0.17377025  0.19548845    -0.26800
O2793       O  0.74134505  0.13030437  0.25148577    -0.58700
H2794       H  0.70068368  0.12881933  0.26385966     0.15900
O2795       O  0.68180366  0.18380081  0.18717410    -0.60100
H2796       H  0.72275359  0.18588676  0.17537987     0.14300
H2797       H  0.81244877  0.17640171  0.24515223     0.46200
H2798       H  0.74208761  0.11847256  0.23300622     0.41600
H2799       H  0.68031324  0.19655777  0.20338655     0.45000
H2800       H  0.74246272  0.14043040  0.13322475     0.36500
C2801       C  0.85456230  0.04629162  0.27995732    -0.27700
C2802       C  0.86561308  0.03268464  0.25526348     0.01900
C2803       C  0.87663023  0.04159302  0.22420457     0.29900
C2804       C  0.87677512  0.06370706  0.21880739    -0.19500
C2805       C  0.86564982  0.07721639  0.24353646    -0.28900
C2806       C  0.85444181  0.06824207  0.27427892     0.44000
C2807       C  0.86497081  0.00932244  0.26233134     0.05200
O2808       O  0.88614702  0.02874585  0.19773773    -0.57500
H2809       H  0.88512394  0.07025267  0.19460506     0.18100
O2810       O  0.84340685  0.08080345  0.29926073    -0.64200
H2811       H  0.84602480  0.03985505  0.30404921     0.16600
C2812       C  0.88359420  0.99696299  0.26476756     0.28800
C2813       C  0.88240249  0.97535895  0.27434065    -0.25100
C2814       C  0.86286653  0.96585822  0.28303898    -0.24300
C2815       C  0.84424223  0.97814063  0.28006720     0.40300
C2816       C  0.84538813  0.99950794  0.26944998    -0.26800
O2817       O  0.90312687  0.00603257  0.25974979    -0.58700
H2818       H  0.89691908  0.96631265  0.27697846     0.15900
O2819       O  0.82474780  0.96931948  0.28699792    -0.60100
H2820       H  0.83085654  0.00859194  0.26747909     0.14300
H2821       H  0.85392839  0.08525381  0.31849043     0.46200
H2822       H  0.90758163  0.01061798  0.28540818     0.41600
H2823       H  0.82080022  0.97402094  0.31292832     0.45000
H2824       H  0.90150662  0.03192445  0.19919159     0.36500
C2825       C  0.03045594  0.12198853  0.27842356    -0.27700
C2826       C  0.02251832  0.13484864  0.24920702     0.01900
C2827       C  0.03681645  0.14717947  0.22778943     0.29900
C2828       C  0.05841840  0.14711151  0.23653144    -0.19500
C2829       C  0.06638224  0.13453837  0.26615373    -0.28900
C2830       C  0.05217041  0.12174457  0.28694366     0.44000
C2831       C  0.99931392  0.13596603  0.24197504     0.05200
O2832       O  0.02984396  0.15936855  0.19813736    -0.57500
H2833       H  0.06904025  0.15683153  0.21974543     0.18100
O2834       O  0.05920206  0.10937882  0.31628650    -0.64200
H2835       H  0.01970528  0.11249703  0.29534635     0.16600
C2836       C  0.98717729  0.11756915  0.23541572     0.28800
C2837       C  0.96543040  0.11924745  0.22769245    -0.25100
C2838       C  0.95561811  0.13917107  0.22542211    -0.24300
C2839       C  0.96764515  0.15749739  0.23262259     0.40300
C2840       C  0.98922214  0.15580726  0.24104740    -0.26800
O2841       O  0.99654934  0.09795616  0.23510602    -0.58700
H2842       H  0.95643980  0.10502974  0.22169063     0.15900
O2843       O  0.95847659  0.17719193  0.23114123    -0.60100
H2844       H  0.99817569  0.17010533  0.24659345     0.14300
H2845       H  0.05823878  0.11852857  0.33910328     0.46200
H2846       H  0.00233010  0.09624261  0.20908536     0.41600
H2847       H  0.95215212  0.17941990  0.25662707     0.45000
H2848       H  0.02899328  0.14955524  0.17622337     0.36500
C2849       C  0.89233077  0.12715662  0.97736326    -0.27700
C2850       C  0.87589166  0.13828737  0.95976709     0.01900
C2851       C  0.86065323  0.14876384  0.98224818     0.29900
C2852       C  0.86209443  0.14814888  0.02185055    -0.19500
C2853       C  0.87882104  0.13737355  0.03961766    -0.28900
C2854       C  0.89389183  0.12661906  0.01687579     0.44000
C2855       C  0.87446801  0.13849103  0.91793794     0.05200
O2856       O  0.84458026  0.16006803  0.96571954    -0.57500
H2857       H  0.85057713  0.15683276  0.03861680     0.18100
O2858       O  0.91038817  0.11570392  0.03289788    -0.64200
H2859       H  0.90397625  0.11878475  0.96036315     0.16600
C2860       C  0.89086637  0.14686961  0.89532377     0.28800
C2861       C  0.88886152  0.14716378  0.85576023    -0.25100
C2862       C  0.87069282  0.13892713  0.83818026    -0.24300
C2863       C  0.85461512  0.12989393  0.86109865     0.40300
C2864       C  0.85652007  0.12996239  0.90052522    -0.26800
O2865       O  0.90850700  0.15554980  0.91173785    -0.58700
H2866       H  0.90146915  0.15405287  0.83888566     0.15900
O2867       O  0.83704355  0.12066803  0.84539461    -0.60100
H2868       H  0.84401283  0.12306041  0.91764517     0.14300
H2869       H  0.90460684  0.10147775  0.03882172     0.46200
H2870       H  0.91973018  0.14463502  0.90907927     0.41600
H2871       H  0.84128822  0.10584385  0.83986664     0.45000
H2872       H  0.85071056  0.17420441  0.96021360     0.36500
C2873       C  0.89184268  0.13486174  0.39618658    -0.27700
C2874       C  0.87761676  0.14680858  0.41829973     0.01900
C2875       C  0.86270298  0.15986929  0.40001528     0.29900
C2876       C  0.86160005  0.16003589  0.36032018    -0.19500
C2877       C  0.87544225  0.14758279  0.33830146    -0.28900
C2878       C  0.89098508  0.13532253  0.35658500     0.44000
C2879       C  0.87912034  0.14581207  0.46028542     0.05200
O2880       O  0.84976226  0.17309294  0.42063300    -0.57500
H2881       H  0.84974156  0.16982068  0.34669836     0.18100
O2882       O  0.90449151  0.12261749  0.33617568    -0.64200
H2883       H  0.90345632  0.12476288  0.40973751     0.16600
C2884       C  0.86134558  0.14161541  0.48349407     0.28800
C2885       C  0.86352558  0.14085243  0.52302525    -0.25100
C2886       C  0.88342699  0.14355432  0.54008617    -0.24300
C2887       C  0.90128717  0.14715621  0.51654356     0.40300
C2888       C  0.89897418  0.14832590  0.47726074    -0.26800
O2889       O  0.84184743  0.13783386  0.46790927    -0.58700
H2890       H  0.84962005  0.13789629  0.54032484     0.15900
O2891       O  0.92114343  0.14982286  0.53147741    -0.60100
H2892       H  0.91284033  0.15143993  0.45992334     0.14300
H2893       H  0.91743645  0.13125171  0.33229170     0.46200
H2894       H  0.84209376  0.12269656  0.46037674     0.41600
H2895       H  0.92327477  0.16536664  0.53271009     0.45000
H2896       H  0.83511701  0.16802538  0.41611029     0.36500
C2897       C  0.77443338  0.33309683  0.93772699    -0.27700
C2898       C  0.75898355  0.34823815  0.94722900     0.01900
C2899       C  0.76416321  0.36454401  0.97287216     0.29900
C2900       C  0.78504738  0.36692082  0.98528611    -0.19500
C2901       C  0.80094930  0.35306513  0.97287573    -0.28900
C2902       C  0.79537547  0.33539706  0.95054928     0.44000
C2903       C  0.73808290  0.34849072  0.92804801     0.05200
O2904       O  0.74893104  0.37858923  0.98496624    -0.57500
H2905       H  0.78912738  0.38055634  0.00245518     0.18100
O2906       O  0.81067462  0.32174557  0.93751333    -0.64200
H2907       H  0.77060396  0.32034480  0.91836557     0.16600
C2908       C  0.73221596  0.36615198  0.90601741     0.28800
C2909       C  0.71105060  0.36896249  0.89542903    -0.25100
C2910       C  0.69558749  0.35417527  0.90598261    -0.24300
C2911       C  0.70190729  0.33522017  0.92382552     0.40300
C2912       C  0.72309847  0.33251993  0.93500380    -0.26800
O2913       O  0.74702857  0.38108988  0.89599944    -0.58700
H2914       H  0.70642896  0.38354312  0.88148043     0.15900
O2915       O  0.68711632  0.32048258  0.93457285    -0.60100
H2916       H  0.72747084  0.31871738  0.95147609     0.14300
H2917       H  0.81265961  0.31131645  0.95822597     0.46200
H2918       H  0.74260216  0.39440253  0.90872700     0.41600
H2919       H  0.68462744  0.31177882  0.91160162     0.45000
H2920       H  0.75321725  0.39260971  0.97484224     0.36500
C2921       C  0.85052073  0.47092837  0.90587123    -0.27700
C2922       C  0.86806602  0.48016340  0.88792940     0.01900
C2923       C  0.88626301  0.46772889  0.88140657     0.29900
C2924       C  0.88642493  0.44617965  0.89160366    -0.19500
C2925       C  0.86845591  0.43660299  0.90806070    -0.28900
C2926       C  0.85061128  0.44947900  0.91607529     0.44000
C2927       C  0.86648978  0.50230232  0.87374385     0.05200
O2928       O  0.90363520  0.47625858  0.86364284    -0.57500
H2929       H  0.90027164  0.43672723  0.88485166     0.18100
O2930       O  0.83283770  0.44116416  0.93286455    -0.64200
H2931       H  0.83645574  0.48033538  0.91126994     0.16600
C2932       C  0.85243905  0.50731530  0.84422117     0.28800
C2933       C  0.85082893  0.52817345  0.83096879    -0.25100
C2934       C  0.86288311  0.54462902  0.84702598    -0.24300
C2935       C  0.87679792  0.53957440  0.87714030     0.40300
C2936       C  0.87863968  0.51853768  0.88993966    -0.26800
O2937       O  0.84070690  0.49172254  0.82720662    -0.58700
H2938       H  0.84009226  0.53138603  0.80778316     0.15900
O2939       O  0.88895350  0.55490746  0.89392765    -0.60100
H2940       H  0.88943792  0.51491496  0.91285179     0.14300
H2941       H  0.83536540  0.44234402  0.96052209     0.46200
H2942       H  0.82655121  0.49249107  0.83942981     0.41600
H2943       H  0.88027674  0.56027509  0.91539596     0.45000
H2944       H  0.90075254  0.47486446  0.83612405     0.36500
C2945       C  0.98318906  0.38468171  0.86241092    -0.27700
C2946       C  0.99938366  0.37353965  0.88084112     0.01900
C2947       C  0.99439019  0.36089327  0.91240664     0.29900
C2948       C  0.97348730  0.35962462  0.92540005    -0.19500
C2949       C  0.95707225  0.37072873  0.90718637    -0.28900
C2950       C  0.96211813  0.38320773  0.87508218     0.44000
C2951       C  0.02158462  0.37509605  0.86749417     0.05200
O2952       O  0.01004719  0.35039110  0.93170089    -0.57500
H2953       H  0.97023611  0.35003737  0.95021967     0.18100
O2954       O  0.94671831  0.39419826  0.85606295    -0.64200
H2955       H  0.98688714  0.39441692  0.83797100     0.16600
C2956       C  0.03201948  0.35720366  0.85274598     0.28800
C2957       C  0.05377671  0.35792244  0.84537646    -0.25100
C2958       C  0.06555227  0.37645592  0.85216608    -0.24300
C2959       C  0.05479171  0.39476712  0.86500209     0.40300
C2960       C  0.03295805  0.39395251  0.87261009    -0.26800
O2961       O  0.02121007  0.33866603  0.84678048    -0.58700
H2962       H  0.06155398  0.34370903  0.83511748     0.15900
O2963       O  0.06564835  0.41303287  0.87294923    -0.60100
H2964       H  0.02507140  0.40780032  0.88413790     0.14300
H2965       H  0.94163126  0.38434637  0.83617741     0.46200
H2966       H  0.01439210  0.34038093  0.82167911     0.41600
H2967       H  0.06429182  0.42188311  0.84985622     0.45000
H2968       H  0.00897092  0.33540748  0.92346462     0.36500
C2969       C  0.87504688  0.24203303  0.11077345    -0.27700
C2970       C  0.88621525  0.24414385  0.07624086     0.01900
C2971       C  0.89733019  0.22654349  0.06189889     0.29900
C2972       C  0.89799489  0.20770094  0.08236395    -0.19500
C2973       C  0.88720999  0.20549449  0.11706732    -0.28900
C2974       C  0.87533197  0.22275250  0.13103298     0.44000
C2975       C  0.88719208  0.26468135  0.05548516     0.05200
O2976       O  0.90754573  0.22753168  0.02752832    -0.57500
H2977       H  0.90665191  0.19444208  0.07034629     0.18100
O2978       O  0.86429603  0.22107784  0.16446289    -0.64200
H2979       H  0.86642745  0.25541514  0.12234444     0.16600
C2980       C  0.86881131  0.27552743  0.04395105     0.28800
C2981       C  0.87053014  0.29431190  0.02273878    -0.25100
C2982       C  0.89048578  0.30278876  0.01310640    -0.24300
C2983       C  0.90883384  0.29157709  0.02412825     0.40300
C2984       C  0.90706748  0.27292891  0.04528365    -0.26800
O2985       O  0.84912329  0.26766529  0.05253345    -0.58700
H2986       H  0.85617045  0.30268966  0.01515010     0.15900
O2987       O  0.92867910  0.29891502  0.01519308    -0.60100
H2988       H  0.92141150  0.26485439  0.05395796     0.14300
H2989       H  0.87429148  0.22582522  0.18434975     0.46200
H2990       H  0.84397405  0.27634351  0.07414610     0.41600
H2991       H  0.93173935  0.29321714  0.98953388     0.45000
H2992       H  0.89657486  0.22407008  0.00845407     0.36500
C2993       C  0.76402197  0.37208819  0.46845622    -0.27700
C2994       C  0.75810906  0.35468351  0.44606635     0.01900
C2995       C  0.77330876  0.33904368  0.43743841     0.29900
C2996       C  0.79434317  0.34154740  0.44961661    -0.19500
C2997       C  0.80044127  0.35962184  0.47009158    -0.28900
C2998       C  0.78502340  0.37476306  0.47995995     0.44000
C2999       C  0.73642285  0.35419798  0.42992741     0.05200
O3000       O  0.76825014  0.32243999  0.41407391    -0.57500
H3001       H  0.80623532  0.33027207  0.44030239     0.18100
O3002       O  0.79061132  0.39276882  0.49930518    -0.64200
H3003       H  0.75247602  0.38419715  0.47553284     0.16600
C3004       C  0.72198288  0.33788750  0.43875595     0.28800
C3005       C  0.70061139  0.33983990  0.42828220    -0.25100
C3006       C  0.69340677  0.35813535  0.40968864    -0.24300
C3007       C  0.70813158  0.37369561  0.39870311     0.40300
C3008       C  0.72943109  0.37162394  0.40864049    -0.26800
O3009       O  0.72818690  0.32085987  0.46016927    -0.58700
H3010       H  0.68934787  0.32804568  0.43790949     0.15900
O3011       O  0.70147011  0.39192379  0.38122285    -0.60100
H3012       H  0.74034203  0.38427180  0.40152345     0.14300
H3013       H  0.79214320  0.40391481  0.47965936     0.46200
H3014       H  0.72730130  0.32575606  0.48686183     0.41600
H3015       H  0.70200101  0.38873377  0.35370073     0.45000
H3016       H  0.76772595  0.30982082  0.43078664     0.36500
C3017       C  0.85116186  0.47046684  0.39421479    -0.27700
C3018       C  0.86995995  0.48037722  0.38271627     0.01900
C3019       C  0.88896931  0.46864581  0.38285708     0.29900
C3020       C  0.88869537  0.44701112  0.39232528    -0.19500
C3021       C  0.86954505  0.43670648  0.40134140    -0.28900
C3022       C  0.85075756  0.44891459  0.40316575     0.44000
C3023       C  0.86894680  0.50245996  0.36820811     0.05200
O3024       O  0.90772352  0.47792667  0.37232266    -0.57500
H3025       H  0.90335907  0.43810674  0.39091898     0.18100
O3026       O  0.83181266  0.43998904  0.41367736    -0.64200
H3027       H  0.83649591  0.47940061  0.39520522     0.16600
C3028       C  0.85479510  0.50767486  0.33885881     0.28800
C3029       C  0.85296073  0.52859135  0.32644110    -0.25100
C3030       C  0.86524122  0.54484158  0.34246912    -0.24300
C3031       C  0.87972531  0.53955442  0.37151915     0.40300
C3032       C  0.88150865  0.51849792  0.38404297    -0.26800
O3033       O  0.84264777  0.49236199  0.32194463    -0.58700
H3034       H  0.84185247  0.53201087  0.30391453     0.15900
O3035       O  0.89239698  0.55469503  0.38763043    -0.60100
H3036       H  0.89247246  0.51475427  0.40663387     0.14300
H3037       H  0.82403356  0.43765206  0.38964582     0.46200
H3038       H  0.85195093  0.48585973  0.30241485     0.41600
H3039       H  0.88429186  0.56000259  0.40984407     0.45000
H3040       H  0.90874940  0.47578803  0.34451253     0.36500
C3041       C  0.03358031  0.36240193  0.35809912    -0.27700
C3042       C  0.02328237  0.38069723  0.37132527     0.01900
C3043       C  0.03498228  0.39965909  0.37448285     0.29900
C3044       C  0.05682965  0.39975605  0.36631577    -0.19500
C3045       C  0.06731267  0.38107736  0.35520611    -0.28900
C3046       C  0.05527384  0.36247447  0.34999400     0.44000
C3047       C  0.00098841  0.37893898  0.38506523     0.05200
O3048       O  0.02563077  0.41767048  0.38852760    -0.57500
H3049       H  0.06576384  0.41420264  0.37061521     0.18100
O3050       O  0.06465203  0.34403359  0.33793358    -0.64200
H3051       H  0.02481530  0.34775230  0.35500504     0.16600
C3052       C  0.98464092  0.39211720  0.37156103     0.28800
C3053       C  0.96388379  0.38978004  0.38552135    -0.25100
C3054       C  0.95890740  0.37415334  0.41267916    -0.24300
C3055       C  0.97528948  0.36063069  0.42530724     0.40300
C3056       C  0.99598717  0.36320469  0.41174935    -0.26800
O3057       O  0.98867561  0.40711271  0.34436220    -0.58700
H3058       H  0.95166156  0.40029197  0.37503704     0.15900
O3059       O  0.97137733  0.34479778  0.45101300    -0.60100
H3060       H  0.00829459  0.35280196  0.42230549     0.14300
H3061       H  0.06466681  0.34488732  0.30985142     0.46200
H3062       H  0.98662762  0.39973591  0.31981627     0.41600
H3063       H  0.96773436  0.33221074  0.43551210     0.45000
H3064       H  0.02487719  0.42759081  0.36676547     0.36500
C3065       C  0.86184802  0.36318430  0.65706189    -0.27700
C3066       C  0.87628818  0.37465078  0.67918269     0.01900
C3067       C  0.89191785  0.38695454  0.66121394     0.29900
C3068       C  0.89329403  0.38730702  0.62170446    -0.19500
C3069       C  0.87917498  0.37551943  0.59936919    -0.28900
C3070       C  0.86324675  0.36344167  0.61743709     0.44000
C3071       C  0.87501304  0.37369027  0.72099996     0.05200
O3072       O  0.90608830  0.39853169  0.68206601    -0.57500
H3073       H  0.90570304  0.39661227  0.60849307     0.18100
O3074       O  0.84957354  0.35111319  0.59686043    -0.64200
H3075       H  0.84984154  0.35350465  0.67060536     0.16600
C3076       C  0.85643664  0.37984645  0.74001330     0.28800
C3077       C  0.85560178  0.37927262  0.77954861    -0.25100
C3078       C  0.87311021  0.37244935  0.80102504    -0.24300
C3079       C  0.89178470  0.36627422  0.78177161     0.40300
C3080       C  0.89259652  0.36694376  0.74208068    -0.26800
O3081       O  0.83935592  0.38741605  0.72021875    -0.58700
H3082       H  0.84114648  0.38448435  0.79334997     0.15900
O3083       O  0.90936810  0.35971024  0.80124202    -0.60100
H3084       H  0.90699987  0.36211018  0.72764958     0.14300
H3085       H  0.85691706  0.33731697  0.59366892     0.46200
H3086       H  0.82892621  0.37567728  0.72014027     0.41600
H3087       H  0.90777948  0.34414718  0.80379863     0.45000
H3088       H  0.89874371  0.41207004  0.68773898     0.36500
C3089       C  0.89769381  0.35925522  0.24369964    -0.27700
C3090       C  0.88012871  0.36419600  0.22091634     0.01900
C3091       C  0.86093806  0.36996701  0.23835433     0.29900
C3092       C  0.85950618  0.37093828  0.27773149    -0.19500
C3093       C  0.87708727  0.36641620  0.30089011    -0.28900
C3094       C  0.89631082  0.36034002  0.28340959     0.44000
C3095       C  0.88198124  0.36434687  0.17901151     0.05200
O3096       O  0.84355284  0.37525278  0.21710788    -0.57500
H3097       H  0.84451355  0.37578540  0.29003052     0.18100
O3098       O  0.91385176  0.35561613  0.30461733    -0.64200
H3099       H  0.91254628  0.35459549  0.23064344     0.16600
C3100       C  0.89736315  0.37688929  0.16086184     0.28800
C3101       C  0.89795575  0.37804931  0.12128988    -0.25100
C3102       C  0.88338961  0.36675367  0.09901886    -0.24300
C3103       C  0.86810093  0.35397337  0.11726013     0.40300
C3104       C  0.86746587  0.35291351  0.15691405    -0.26800
O3105       O  0.91127108  0.38884540  0.18161778    -0.58700
H3106       H  0.90990142  0.38790459  0.10799369     0.15900
O3107       O  0.85398895  0.34212047  0.09674934    -0.60100
H3108       H  0.85563054  0.34304643  0.17050990     0.14300
H3109       H  0.91316168  0.34010286  0.30888790     0.46200
H3110       H  0.92492318  0.38107431  0.18044999     0.41600
H3111       H  0.86123206  0.32839885  0.09212182     0.45000
H3112       H  0.84502082  0.39062929  0.21196584     0.36500
C3113       C  0.87237284  0.27541224  0.54373122    -0.27700
C3114       C  0.88929758  0.26967469  0.56755251     0.01900
C3115       C  0.90691530  0.28333902  0.56954028     0.29900
C3116       C  0.90772867  0.30175371  0.54753936    -0.19500
C3117       C  0.89086617  0.30772171  0.52371947    -0.28900
C3118       C  0.87297065  0.29425388  0.52219093     0.44000
C3119       C  0.88942668  0.24891657  0.58831644     0.05200
O3120       O  0.92343862  0.27902830  0.59350567    -0.57500
H3121       H  0.92152949  0.31180128  0.55038857     0.18100
O3122       O  0.85579187  0.29944412  0.50040719    -0.64200
H3123       H  0.85872052  0.26512567  0.54140064     0.16600
C3124       C  0.87223291  0.24176426  0.61068143     0.28800
C3125       C  0.87319068  0.22190434  0.62907675    -0.25100
C3126       C  0.89127995  0.20885518  0.62601022    -0.24300
C3127       C  0.90852160  0.21637181  0.60384800     0.40300
C3128       C  0.90738977  0.23594510  0.58543516    -0.26800
O3129       O  0.85438020  0.25396570  0.61466082    -0.58700
H3130       H  0.85958417  0.21658963  0.64527308     0.15900
O3131       O  0.92654188  0.20451076  0.59883906    -0.60100
H3132       H  0.92064713  0.24078031  0.56786190     0.14300
H3133       H  0.85881516  0.29328445  0.47508243     0.46200
H3134       H  0.85715666  0.26316967  0.63688449     0.41600
H3135       H  0.92460121  0.19714578  0.57424991     0.45000
H3136       H  0.91979339  0.28629400  0.61760982     0.36500
loop_ 
_geom_bond_atom_site_label_1 
_geom_bond_atom_site_label_2 
_geom_bond_distance 
_geom_bond_site_symmetry_2 
_ccdc_geom_bond_type 
O1           Ni7   1.904       .  S
O1           C22   1.261       .  A
O2          Ni25   1.914       .  S
O2           C11   1.271       .  A
O3           Ni7   1.895       .  S
O3          Ni25   1.898       .  S
O3          Ni19   1.915       .  S
O3           H26   0.967       .  S
C4           O21   1.280       .  A
C4           O13   1.280       .  A
C4         C3069   1.478       .  S
O5          Ni24   1.935       .  S
O5           C11   1.275       .  A
O6          Ni24   1.910       .  S
O6            C8   1.272       .  A
Ni7          O10   1.908       .  S
Ni7          O12   1.897       .  S
C8           O18   1.277       .  A
C8         C3117   1.502       .  S
O9          Ni25   1.935       .  S
O9           C15   1.284       .  A
O10          C15   1.278       .  A
C11        C3054   1.493       .  S
O12          C14   1.264       .  A
O13         Ni24   1.919       .  S
C14          O20   1.271       .  A
C14        C3021   1.491       .  S
C15        C3093   1.487       .  S
H16          O17   0.966       .  S
O17         Ni25   1.918       .  S
O17         Ni19   1.907       .  S
O17         Ni24   1.886       .  S
O18         Ni19   1.941       .  S
Ni19         O23   1.933       .  S
Ni19         O21   1.923       .  S
O20         Ni25   1.937       .  S
C22          O23   1.271       .  A
C22        C2997   1.471       .  S
O27         Ni33   1.910       .  S
O27          C48   1.265       .  A
O28         Ni51   1.914       .  S
O28          C37   1.271       .  A
O29         Ni33   1.892       .  S
O29         Ni51   1.895       .  S
O29         Ni45   1.917       .  S
O29          H52   0.967       .  S
C30          O47   1.283       .  A
C30          O39   1.280       .  A
C30        C3102   1.481       .  S
O31         Ni50   1.927       .  S
O31          C37   1.274       .  A
O32         Ni50   1.911   1_554  S
O32          C34   1.269   1_554  A
Ni33         O36   1.919       .  S
Ni33         O38   1.902       .  S
C34          O44   1.273       .  A
C34        C2982   1.489   1_556  S
O35         Ni51   1.922       .  S
O35          C41   1.281       .  A
O36          C41   1.280       .  A
C37        C2949   1.489       .  S
O38          C40   1.267       .  A
O39         Ni50   1.915   1_554  S
C40          O46   1.275       .  A
C40        C2925   1.494       .  S
C41        C3078   1.485       .  S
H42          O43   0.966       .  S
O43         Ni51   1.916       .  S
O43         Ni45   1.902       .  S
O43         Ni50   1.889       .  S
O44         Ni45   1.928       .  S
Ni45         O49   1.928       .  S
Ni45         O47   1.933   1_556  S
O46         Ni51   1.944       .  S
C48          O49   1.269       .  A
C48        C2901   1.471       .  S
O53         Ni59   1.895       .  S
O53          C74   1.262       .  A
O54         Ni77   1.918       .  S
O54          C63   1.271       .  A
O55         Ni59   1.894       .  S
O55         Ni77   1.894       .  S
O55         Ni71   1.932       .  S
O55          H78   0.966       .  S
C56          O73   1.286       .  A
C56          O65   1.280       .  A
C56        C2853   1.482       .  S
O57         Ni76   1.930       .  S
O57          C63   1.272       .  A
O58         Ni76   1.899       .  S
O58          C60   1.269       .  A
Ni59         O62   1.911       .  S
Ni59         O64   1.906       .  S
C60          O70   1.275       .  A
C60        C2973   1.483       .  S
O61         Ni77   1.933       .  S
O61          C67   1.284       .  A
O62          C67   1.278       .  A
C63        C2838   1.477       .  S
O64          C66   1.267       .  A
O65         Ni76   1.916       .  S
C66          O72   1.272       .  A
C66        C2805   1.486       .  S
C67        C2877   1.477       .  S
H68          O69   0.966       .  S
O69         Ni77   1.913       .  S
O69         Ni71   1.904       .  S
O69         Ni76   1.882       .  S
O70         Ni71   1.941       .  S
Ni71         O75   1.942       .  S
Ni71         O73   1.935       .  S
O72         Ni77   1.937       .  S
C74          O75   1.272       .  A
C74        C2781   1.476       .  S
O79         Ni85   1.909       .  S
O79         C100   1.264       .  A
O80        Ni103   1.917       .  S
O80          C89   1.270       .  A
O81         Ni85   1.901       .  S
O81        Ni103   1.901       .  S
O81         Ni97   1.921       .  S
O81         H104   0.967       .  S
C82          O99   1.284       .  A
C82          O91   1.279       .  A
C82        C2886   1.486       .  S
O83        Ni102   1.930       .  S
O83          C89   1.274       .  A
O84        Ni102   1.906       .  S
O84          C86   1.269       .  A
Ni85         O88   1.920       .  S
Ni85         O90   1.902       .  S
C86          O96   1.278       .  A
C86        C3126   1.504       .  S
O87        Ni103   1.920       .  S
O87          C93   1.280       .  A
O88          C93   1.279       .  A
C89        C2757   1.490       .  S
O90          C92   1.266       .  A
O91        Ni102   1.915       .  S
C92          O98   1.273       .  A
C92        C2742   1.495       .  S
C93        C2862   1.483       .  S
H94          O95   0.966       .  S
O95        Ni103   1.915       .  S
O95         Ni97   1.909       .  S
O95        Ni102   1.886       .  S
O96         Ni97   1.946       .  S
Ni97        O101   1.939       .  S
Ni97         O99   1.934       .  S
O98        Ni103   1.940       .  S
C100        O101   1.273       .  A
C100       C2709   1.482       .  S
O105       Ni111   1.942       .  S
O105        C126   1.277       .  A
O106       Ni129   1.942       .  S
O106        C115   1.271       .  A
O107       Ni111   1.899       .  S
O107       Ni129   1.913       .  S
O107       Ni123   1.918       .  S
O107        H130   0.966       .  S
C108        O125   1.283       .  A
C108        O117   1.277       .  A
C108       C2646   1.491       .  S
O109       Ni128   1.904       .  S
O109        C115   1.261       .  A
O110       Ni128   1.894       .  S
O110        C112   1.265       .  A
Ni111       O114   1.930       .  S
Ni111       O116   1.911       .  S
C112        O122   1.274       .  A
C112       C2598   1.488       .  S
O113       Ni129   1.925       .  S
O113        C119   1.282       .  A
O114        C119   1.281       .  A
C115       C2574   1.480       .  S
O116        C118   1.270       .  A
O117       Ni128   1.913   1_556  S
C118        O124   1.274       .  A
C118       C2694   1.492       .  S
C119       C2670   1.486       .  S
H120        O121   0.967       .  S
O121       Ni129   1.919       .  S
O121       Ni123   1.901       .  S
O121       Ni128   1.901       .  S
O122       Ni123   1.941       .  S
Ni123       O127   1.919       .  S
Ni123       O125   1.931   1_554  S
O124       Ni129   1.930       .  S
C126        O127   1.272       .  A
C126       C2622   1.499       .  S
O131       Ni137   1.927       .  S
O131        C152   1.272       .  A
O132       Ni155   1.928       .  S
O132        C141   1.271       .  A
O133       Ni137   1.881       .  S
O133       Ni155   1.901       .  S
O133       Ni149   1.917       .  S
O133        H156   0.966       .  S
C134        O151   1.283       .  A
C134        O143   1.280       .  A
C134       C2661   1.483       .  S
O135       Ni154   1.908       .  S
O135        C141   1.263       .  A
O136       Ni154   1.900       .  S
O136        C138   1.265       .  A
Ni137       O140   1.920       .  S
Ni137       O142   1.903       .  S
C138        O148   1.267       .  A
C138       C2493   1.480       .  S
O139       Ni155   1.930       .  S
O139        C145   1.282       .  A
O140        C145   1.279       .  A
C141       C2469   1.470       .  S
O142        C144   1.270       .  A
O143       Ni154   1.925       .  S
C144        O150   1.278       .  A
C144       C2541   1.492       .  S
C145       C2637   1.479       .  S
H146        O147   0.967       .  S
O147       Ni155   1.920       .  S
O147       Ni149   1.895       .  S
O147       Ni154   1.898       .  S
O148       Ni149   1.923       .  S
Ni149       O153   1.908       .  S
Ni149       O151   1.926       .  S
O150       Ni155   1.944       .  S
C152        O153   1.269       .  A
C152       C2526   1.487       .  S
O157       Ni163   1.935       .  S
O157        C178   1.276       .  A
O158       Ni181   1.921       .  S
O158        C167   1.266       .  A
O159       Ni163   1.897       .  S
O159       Ni181   1.902       .  S
O159       Ni175   1.912       .  S
O159        H182   0.966       .  S
C160        O177   1.281       .  A
C160        O169   1.277       .  A
C160       C2430   1.478       .  S
O161       Ni180   1.904       .  S
O161        C167   1.261       .  A
O162       Ni180   1.903       .  S
O162        C164   1.266       .  A
Ni163       O166   1.927       .  S
Ni163       O168   1.914       .  S
C164        O174   1.271       .  A
C164       C3045   1.486       .  S
O165       Ni181   1.916       .  S
O165        C171   1.279       .  A
O166        C171   1.280       .  A
C167       C2373   1.461       .  S
O168        C170   1.270       .  A
O169       Ni180   1.912       .  S
C170        O176   1.273       .  A
C170       C2685   1.492       .  S
C171       C2445   1.479       .  S
H172        O173   0.968       .  S
O173       Ni181   1.920       .  S
O173       Ni175   1.895       .  S
O173       Ni180   1.900       .  S
O174       Ni175   1.934       .  S
Ni175       O179   1.894       .  S
Ni175       O177   1.933       .  S
O176       Ni181   1.931       .  S
C178        O179   1.266       .  A
C178       C2406   1.482       .  S
O183       Ni189   1.925       .  S
O183        C204   1.272       .  A
O184       Ni207   1.944       .  S
O184        C193   1.274       .  A
O185       Ni189   1.883       .  S
O185       Ni207   1.907       .  S
O185       Ni201   1.913       .  S
O185        H208   0.966       .  S
C186        O203   1.280       .  A
C186        O195   1.280       .  A
C186       C2454   1.484       .  S
O187       Ni206   1.907       .  S
O187        C193   1.264       .  A
O188       Ni206   1.900       .  S
O188        C190   1.266       .  A
Ni189       O192   1.906       .  S
Ni189       O194   1.907       .  S
C190        O200   1.271       .  A
C190       C2958   1.487       .  S
O191       Ni207   1.944       .  S
O191        C197   1.287       .  A
O192        C197   1.277       .  A
C193       C2325   1.482       .  S
O194        C196   1.270       .  A
O195       Ni206   1.923       .  S
C196        O202   1.276       .  A
C196       C2550   1.497       .  S
C197       C2421   1.484       .  S
H198        O199   0.967       .  S
O199       Ni207   1.927       .  S
O199       Ni201   1.898       .  S
O199       Ni206   1.896       .  S
O200       Ni201   1.932       .  S
Ni201       O205   1.918       .  S
Ni201       O203   1.921       .  S
O202       Ni207   1.936       .  S
C204        O205   1.270       .  A
C204       C2349   1.491       .  S
O209       Ni215   1.903       .  S
O209        C230   1.261       .  A
O210       Ni233   1.915       .  S
O210        C219   1.270       .  A
O211       Ni215   1.895       .  S
O211       Ni233   1.899       .  S
O211       Ni227   1.916       .  S
O211        H234   0.967       .  S
C212        O229   1.280       .  A
C212        O221   1.279       .  A
C212       C2262   1.480       .  S
O213       Ni232   1.935       .  S
O213        C219   1.276       .  A
O214       Ni232   1.909       .  S
O214        C216   1.272       .  A
Ni215       O218   1.910       .  S
Ni215       O220   1.893       .  S
C216        O226   1.277       .  A
C216       C2310   1.499       .  S
O217       Ni233   1.937       .  S
O217        C223   1.285       .  A
O218        C223   1.277       .  A
C219       C2238   1.496       .  S
O220        C222   1.263       .  A
O221       Ni232   1.920       .  S
C222        O228   1.268       .  A
C222       C2397   1.479       .  S
C223       C2286   1.490       .  S
H224        O225   0.966       .  S
O225       Ni233   1.920       .  S
O225       Ni227   1.910       .  S
O225       Ni232   1.888       .  S
O226       Ni227   1.937       .  S
Ni227       O231   1.941       .  S
Ni227       O229   1.921       .  S
O228       Ni233   1.925       .  S
C230        O231   1.272       .  A
C230       C2205   1.480       .  S
O235       Ni241   1.911       .  S
O235        C256   1.264       .  A
O236       Ni259   1.908       .  S
O236        C245   1.268       .  A
O237       Ni241   1.904       .  S
O237       Ni259   1.902       .  S
O237       Ni253   1.915       .  S
O237        H260   0.967       .  S
C238        O255   1.281       .  A
C238        O247   1.278       .  A
C238       C2277   1.479       .  S
O239       Ni258   1.940       .  S
O239        C245   1.277       .  A
O240       Ni258   1.918   1_554  S
O240        C242   1.273   1_554  A
Ni241       O244   1.917       .  S
Ni241       O246   1.904       .  S
C242        O252   1.277       .  A
C242       C2181   1.504   1_556  S
O243       Ni259   1.923       .  S
O243        C249   1.280       .  A
O244        C249   1.278       .  A
C245       C2157   1.494       .  S
O246        C248   1.266       .  A
O247       Ni258   1.918   1_554  S
C248        O254   1.271       .  A
C248       C2358   1.491       .  S
C249       C2253   1.483       .  S
H250        O251   0.966       .  S
O251       Ni259   1.917       .  S
O251       Ni253   1.913       .  S
O251       Ni258   1.896       .  S
O252       Ni253   1.937       .  S
Ni253       O257   1.934       .  S
Ni253       O255   1.927   1_556  S
O254       Ni259   1.937       .  S
C256        O257   1.271       .  A
C256       C2142   1.475       .  S
O261       Ni267   1.909       .  S
O261        C282   1.264       .  A
O262       Ni285   1.926       .  S
O262        C271   1.275       .  A
O263       Ni267   1.898       .  S
O263       Ni285   1.903       .  S
O263       Ni279   1.927       .  S
O263        H286   0.967       .  S
C264        O281   1.286       .  A
C264        O273   1.280       .  A
C264       C2094   1.480       .  S
O265       Ni284   1.928       .  S
O265        C271   1.274       .  A
O266       Ni284   1.910       .  S
O266        C268   1.270       .  A
Ni267       O270   1.922       .  S
Ni267       O272   1.898       .  S
C268        O278   1.277       .  A
C268       C2190   1.499       .  S
O269       Ni285   1.933       .  S
O269        C275   1.284       .  A
O270        C275   1.279       .  A
C271       C2037   1.497       .  S
O272        C274   1.266       .  A
O273       Ni284   1.913       .  S
C274        O280   1.275       .  A
C274       C2061   1.496       .  S
C275       C2109   1.496       .  S
H276        O277   0.966       .  S
O277       Ni285   1.919       .  S
O277       Ni279   1.903       .  S
O277       Ni284   1.883       .  S
O278       Ni279   1.946       .  S
Ni279       O283   1.937       .  S
Ni279       O281   1.942       .  S
O280       Ni285   1.945       .  S
C282        O283   1.271       .  A
C282       C2013   1.480       .  S
O287       Ni293   1.908       .  S
O287        C308   1.264       .  A
O288       Ni311   1.912       .  S
O288        C297   1.271       .  A
O289       Ni293   1.895       .  S
O289       Ni311   1.896       .  S
O289       Ni305   1.920       .  S
O289        H312   0.967       .  S
C290        O307   1.284       .  A
C290        O299   1.279       .  A
C290       C2118   1.480       .  S
O291       Ni310   1.938       .  S
O291        C297   1.275       .  A
O292       Ni310   1.905       .  S
O292        C294   1.272       .  A
Ni293       O296   1.912       .  S
Ni293       O298   1.904       .  S
C294        O304   1.278       .  A
C294       C2301   1.495       .  S
O295       Ni311   1.933       .  S
O295        C301   1.283       .  A
O296        C301   1.278       .  A
C297       C1965   1.492       .  S
O298        C300   1.267       .  A
O299       Ni310   1.921       .  S
C300        O306   1.270       .  A
C300       C1989   1.481       .  S
C301       C2085   1.476       .  S
H302        O303   0.966       .  S
O303       Ni311   1.912       .  S
O303       Ni305   1.907       .  S
O303       Ni310   1.882       .  S
O304       Ni305   1.945       .  S
Ni305       O309   1.939       .  S
Ni305       O307   1.934       .  S
O306       Ni311   1.931       .  S
C308        O309   1.275       .  A
C308       C1950   1.477       .  S
O313       Ni319   1.936       .  S
O313        C334   1.275       .  A
O314       Ni337   1.935       .  S
O314        C323   1.271       .  A
O315       Ni319   1.890       .  S
O315       Ni337   1.907       .  S
O315       Ni331   1.918       .  S
O315        H338   0.966       .  S
C316        O333   1.283       .  A
C316        O325   1.278       .  A
C316       C1878   1.481       .  S
O317       Ni336   1.908       .  S
O317        C323   1.264       .  A
O318       Ni336   1.905       .  S
O318        C320   1.268       .  A
Ni319       O322   1.921       .  S
Ni319       O324   1.913       .  S
C320        O330   1.272       .  A
C320       C1845   1.492       .  S
O321       Ni337   1.931       .  S
O321        C327   1.282       .  A
O322        C327   1.279       .  A
C323       C1797   1.474       .  S
O324        C326   1.271       .  A
O325       Ni336   1.915   1_556  S
C326        O332   1.275       .  A
C326       C1917   1.491       .  S
C327       C1893   1.480       .  S
H328        O329   0.968       .  S
O329       Ni337   1.917       .  S
O329       Ni331   1.899       .  S
O329       Ni336   1.897       .  S
O330       Ni331   1.935       .  S
Ni331       O335   1.918       .  S
Ni331       O333   1.929   1_554  S
O332       Ni337   1.932       .  S
C334        O335   1.272       .  A
C334       C1821   1.497       .  S
O339       Ni345   1.926       .  S
O339        C360   1.273       .  A
O340       Ni363   1.930       .  S
O340        C349   1.270       .  A
O341       Ni345   1.888       .  S
O341       Ni363   1.905       .  S
O341       Ni357   1.920       .  S
O341        H364   0.966       .  S
C342        O359   1.283       .  A
C342        O351   1.279       .  A
C342       C1902   1.494       .  S
O343       Ni362   1.909       .  S
O343        C349   1.264       .  A
O344       Ni362   1.902       .  S
O344        C346   1.266       .  A
Ni345       O348   1.912       .  S
Ni345       O350   1.911       .  S
C346        O356   1.273       .  A
C346       C1758   1.489       .  S
O347       Ni363   1.939       .  S
O347        C353   1.284       .  A
O348        C353   1.278       .  A
C349       C1701   1.471       .  S
O350        C352   1.271       .  A
O351       Ni362   1.921       .  S
C352        O358   1.275       .  A
C352       C1782   1.500       .  S
C353       C1869   1.482       .  S
H354        O355   0.967       .  S
O355       Ni363   1.925       .  S
O355       Ni357   1.898       .  S
O355       Ni362   1.897       .  S
O356       Ni357   1.936       .  S
Ni357       O361   1.918       .  S
Ni357       O359   1.931       .  S
O358       Ni363   1.937       .  S
C360        O361   1.271       .  A
C360       C1725   1.491       .  S
O365       Ni371   1.929       .  S
O365        C386   1.274       .  A
O366       Ni389   1.927       .  S
O366        C375   1.269       .  A
O367       Ni371   1.889       .  S
O367       Ni389   1.905       .  S
O367       Ni383   1.917       .  S
O367        H390   0.966       .  S
C368        O385   1.282       .  A
C368        O377   1.280       .  A
C368       C1662   1.484       .  S
O369       Ni388   1.910       .  S
O369        C375   1.264       .  A
O370       Ni388   1.903       .  S
O370        C372   1.266       .  A
Ni371       O374   1.917       .  S
Ni371       O376   1.909       .  S
C372        O382   1.271       .  A
C372       C2229   1.494       .  S
O373       Ni389   1.927       .  S
O373        C379   1.280       .  A
O374        C379   1.279       .  A
C375       C1629   1.468       .  S
O376        C378   1.270       .  A
O377       Ni388   1.921       .  S
C378        O384   1.276       .  A
C378       C1926   1.498       .  S
C379       C1677   1.479       .  S
H380        O381   0.967       .  S
O381       Ni389   1.915       .  S
O381       Ni383   1.895       .  S
O381       Ni388   1.897       .  S
O382       Ni383   1.937       .  S
Ni383       O387   1.911       .  S
Ni383       O385   1.925       .  S
O384       Ni389   1.937       .  S
C386        O387   1.269       .  A
C386       C3030   1.489       .  S
O391       Ni397   1.936       .  S
O391        C412   1.275       .  A
O392       Ni415   1.943       .  S
O392        C401   1.272       .  A
O393       Ni397   1.888       .  S
O393       Ni415   1.911       .  S
O393       Ni409   1.920       .  S
O393        H416   0.966       .  S
C394        O411   1.284       .  A
C394        O403   1.278       .  A
C394       C1686   1.483       .  S
O395       Ni414   1.896       .  S
O395        C401   1.259       .  A
O396       Ni414   1.900       .  S
O396        C398   1.265       .  A
Ni397       O400   1.919       .  S
Ni397       O402   1.906       .  S
C398        O408   1.270       .  A
C398       C2166   1.490       .  S
O399       Ni415   1.927       .  S
O399        C405   1.282       .  A
O400        C405   1.279       .  A
C401       C1605   1.474       .  S
O402        C404   1.271       .  A
O403       Ni414   1.912       .  S
C404        O410   1.279       .  A
C404       C1773   1.497       .  S
C405       C1653   1.488       .  S
H406        O407   0.967       .  S
O407       Ni415   1.925       .  S
O407       Ni409   1.898       .  S
O407       Ni414   1.901       .  S
O408       Ni409   1.934       .  S
Ni409       O413   1.917       .  S
Ni409       O411   1.931       .  S
O410       Ni415   1.946       .  S
C412        O413   1.270       .  A
C412       C2934   1.497       .  S
O417       Ni423   1.930       .  S
O417        C438   1.274       .  A
O418       Ni441   1.937       .  S
O418        C427   1.271       .  A
O419       Ni423   1.888       .  S
O419       Ni441   1.909       .  S
O419       Ni435   1.915       .  S
O419        H442   0.966       .  S
C420        O437   1.283       .  A
C420        O429   1.279       .  A
C420       C1557   1.486       .  S
O421       Ni440   1.913       .  S
O421        C427   1.266       .  A
O422       Ni440   1.902       .  S
O422        C424   1.267       .  A
Ni423       O426   1.912   1_554  S
Ni423       O428   1.912       .  S
C424        O434   1.274       .  A
C424       C1509   1.499       .  S
O425       Ni441   1.929   1_556  S
O425        C431   1.282       .  A
O426        C431   1.279       .  A
C427       C1806   1.484       .  S
O428        C430   1.271       .  A
O429       Ni440   1.918       .  S
C430        O436   1.277       .  A
C430       C1581   1.499   1_554  S
C431       C1533   1.483       .  S
H432        O433   0.967       .  S
O433       Ni441   1.919       .  S
O433       Ni435   1.905       .  S
O433       Ni440   1.897       .  S
O434       Ni435   1.944       .  S
Ni435       O439   1.926       .  S
Ni435       O437   1.928       .  S
O436       Ni441   1.941       .  S
C438        O439   1.274       .  A
C438       C1494   1.498       .  S
O443       Ni449   1.946       .  S
O443        C464   1.278       .  A
O444       Ni467   1.930       .  S
O444        C453   1.268       .  A
O445       Ni449   1.898       .  S
O445       Ni467   1.912       .  S
O445       Ni461   1.912       .  S
O445        H468   0.966       .  S
C446        O463   1.282       .  A
C446        O455   1.276       .  A
C446       C1542   1.473       .  S
O447       Ni466   1.907       .  S
O447        C453   1.263       .  A
O448       Ni466   1.909       .  S
O448        C450   1.268       .  A
Ni449       O452   1.933       .  S
Ni449       O454   1.915       .  S
C450        O460   1.270       .  A
C450       C1437   1.476       .  S
O451       Ni467   1.914       .  S
O451        C457   1.278       .  A
O452        C457   1.281       .  A
C453       C1710   1.472       .  S
O454        C456   1.271       .  A
O455       Ni466   1.907       .  S
C456        O462   1.272       .  A
C456       C1470   1.492       .  S
C457       C1566   1.484       .  S
H458        O459   0.967       .  S
O459       Ni467   1.917       .  S
O459       Ni461   1.898       .  S
O459       Ni466   1.903       .  S
O460       Ni461   1.932       .  S
Ni461       O465   1.913       .  S
Ni461       O463   1.932       .  S
O462       Ni467   1.931       .  S
C464        O465   1.271       .  A
C464       C1413   1.500       .  S
O469       Ni475   1.934       .  S
O469        C490   1.273       .  A
O470       Ni493   1.927       .  S
O470        C479   1.268       .  A
O471       Ni475   1.895       .  S
O471       Ni493   1.907       .  S
O471       Ni487   1.912       .  S
O471        H494   0.966       .  S
C472        O489   1.280       .  A
C472        O481   1.278       .  A
C472       C1398   1.473       .  S
O473       Ni492   1.908       .  S
O473        C479   1.263       .  A
O474       Ni492   1.901       .  S
O474        C476   1.267       .  A
Ni475       O478   1.922       .  S
Ni475       O480   1.909       .  S
C476        O486   1.277       .  A
C476       C2046   1.492       .  S
O477       Ni493   1.927       .  S
O477        C483   1.282       .  A
O478        C483   1.280       .  A
C479       C1638   1.471       .  S
O480        C482   1.269       .  A
O481       Ni492   1.916       .  S
C482        O488   1.272       .  A
C482       C1461   1.491       .  S
C483       C1365   1.487       .  S
H484        O485   0.967       .  S
O485       Ni493   1.922       .  S
O485       Ni487   1.901       .  S
O485       Ni492   1.897       .  S
O486       Ni487   1.948       .  S
Ni487       O491   1.922       .  S
Ni487       O489   1.924       .  S
O488       Ni493   1.932       .  S
C490        O491   1.273       .  A
C490       C2814   1.488       .  S
O495       Ni501   1.925       .  S
O495        C516   1.272       .  A
O496       Ni519   1.934       .  S
O496        C505   1.272       .  A
O497       Ni501   1.883       .  S
O497       Ni519   1.902       .  S
O497       Ni513   1.918       .  S
O497        H520   0.966       .  S
C498        O515   1.284       .  A
C498        O507   1.279       .  A
C498       C1374   1.482       .  S
O499       Ni518   1.908       .  S
O499        C505   1.262       .  A
O500       Ni518   1.899       .  S
O500        C502   1.266       .  A
Ni501       O504   1.915       .  S
Ni501       O506   1.908       .  S
C502        O512   1.274       .  A
C502       C1974   1.492       .  S
O503       Ni519   1.932       .  S
O503        C509   1.284       .  A
O504        C509   1.280       .  A
C505       C1614   1.473       .  S
O506        C508   1.270       .  A
O507       Ni518   1.918       .  S
C508        O514   1.277       .  A
C508       C1590   1.491       .  S
C509       C1389   1.483       .  S
H510        O511   0.966       .  S
O511       Ni519   1.922       .  S
O511       Ni513   1.900       .  S
O511       Ni518   1.897       .  S
O512       Ni513   1.941       .  S
Ni513       O517   1.927       .  S
Ni513       O515   1.929       .  S
O514       Ni519   1.945       .  S
C516        O517   1.274       .  A
C516       C2733   1.496       .  S
O521       Ni527   1.904       .  S
O521        C542   1.262       .  A
O522       Ni545   1.914       .  S
O522        C531   1.271       .  A
O523       Ni527   1.899       .  S
O523       Ni545   1.897       .  S
O523       Ni539   1.923       .  S
O523        H546   0.967       .  S
C524        O541   1.283       .  A
C524        O533   1.280       .  A
C524       C1317   1.479       .  S
O525       Ni544   1.931       .  S
O525        C531   1.273       .  A
O526       Ni544   1.905       .  S
O526        C528   1.269       .  A
Ni527       O530   1.916       .  S
Ni527       O532   1.902       .  S
C528        O538   1.277       .  A
C528       C1341   1.500       .  S
O529       Ni545   1.928       .  S
O529        C535   1.282       .  A
O530        C535   1.279       .  A
C531       C1269   1.489       .  S
O532        C534   1.265       .  A
O533       Ni544   1.918       .  S
C534        O540   1.274       .  A
C534       C1485   1.497       .  S
C535       C1302   1.487       .  S
H536        O537   0.966       .  S
O537       Ni545   1.916       .  S
O537       Ni539   1.904       .  S
O537       Ni544   1.888       .  S
O538       Ni539   1.944       .  S
Ni539       O543   1.931       .  S
Ni539       O541   1.928       .  S
O540       Ni545   1.944       .  S
C542        O543   1.270       .  A
C542       C2790   1.468       .  S
O547       Ni553   1.900       .  S
O547        C568   1.264       .  A
O548       Ni571   1.913       .  S
O548        C557   1.272       .  A
O549       Ni553   1.895       .  S
O549       Ni571   1.897       .  S
O549       Ni565   1.924       .  S
O549        H572   0.967       .  S
C550        O567   1.283       .  A
C550        O559   1.280       .  A
C550       C1293   1.481       .  S
O551       Ni570   1.937       .  S
O551        C557   1.276       .  A
O552       Ni570   1.912       .  S
O552        C554   1.271       .  A
Ni553       O556   1.915       .  S
Ni553       O558   1.906       .  S
C554        O564   1.278       .  A
C554       C1245   1.494       .  S
O555       Ni571   1.930       .  S
O555        C561   1.283       .  A
O556        C561   1.278       .  A
C557       C1230   1.495       .  S
O558        C560   1.267       .  A
O559       Ni570   1.920       .  S
C560        O566   1.274       .  A
C560       C1422   1.500       .  S
C561       C1326   1.481       .  S
H562        O563   0.966       .  S
O563       Ni571   1.918       .  S
O563       Ni565   1.908       .  S
O563       Ni570   1.887       .  S
O564       Ni565   1.943       .  S
Ni565       O569   1.944       .  S
Ni565       O567   1.934       .  S
O566       Ni571   1.945       .  S
C568        O569   1.273       .  A
C568       C2718   1.481       .  S
O573       Ni579   1.911       .  S
O573        C594   1.265       .  A
O574       Ni597   1.907       .  S
O574        C583   1.268       .  A
O575       Ni579   1.895       .  S
O575       Ni597   1.895       .  S
O575       Ni591   1.913       .  S
O575        H598   0.967       .  S
C576        O593   1.281       .  A
C576        O585   1.279       .  A
C576       C1197   1.479       .  S
O577       Ni596   1.931       .  S
O577        C583   1.274       .  A
O578       Ni596   1.907       .  S
O578        C580   1.271       .  A
Ni579       O582   1.918       .  S
Ni579       O584   1.903       .  S
C580        O590   1.278       .  A
C580       C1350   1.500       .  S
O581       Ni597   1.926       .  S
O581        C587   1.282       .  A
O582        C587   1.280       .  A
C583       C2502   1.486       .  S
O584        C586   1.265       .  A
O585       Ni596   1.921       .  S
C586        O592   1.270       .  A
C586       C1734   1.490       .  S
C587       C1173   1.485       .  S
H588        O589   0.966       .  S
O589       Ni597   1.917       .  S
O589       Ni591   1.904       .  S
O589       Ni596   1.885       .  S
O590       Ni591   1.942       .  S
Ni591       O595   1.928       .  S
Ni591       O593   1.927       .  S
O592       Ni597   1.935       .  S
C594        O595   1.271       .  A
C594       C3006   1.471       .  S
O599       Ni605   1.916       .  S
O599        C620   1.267       .  A
O600       Ni623   1.918       .  S
O600        C609   1.272       .  A
O601       Ni605   1.897       .  S
O601       Ni623   1.897       .  S
O601       Ni617   1.914       .  S
O601        H624   0.967       .  S
C602        O619   1.281       .  A
C602        O611   1.278       .  A
C602       C1182   1.482       .  S
O603       Ni622   1.925       .  S
O603        C609   1.272       .  A
O604       Ni622   1.910       .  S
O604        C606   1.270       .  A
Ni605       O608   1.924   1_556  S
Ni605       O610   1.907       .  S
C606        O616   1.277       .  A
C606       C1254   1.495       .  S
O607       Ni623   1.927   1_554  S
O607        C613   1.283       .  A
O608        C613   1.280       .  A
C609       C2589   1.491       .  S
O610        C612   1.267       .  A
O611       Ni622   1.915       .  S
C612        O618   1.272       .  A
C612       C1830   1.497       .  S
C613       C1206   1.492       .  S
H614        O615   0.966       .  S
O615       Ni623   1.918       .  S
O615       Ni617   1.903       .  S
O615       Ni622   1.887       .  S
O616       Ni617   1.939       .  S
Ni617       O621   1.928       .  S
Ni617       O619   1.927       .  S
O618       Ni623   1.936       .  S
C620        O621   1.270       .  A
C620       C2910   1.473       .  S
O625       Ni631   1.910       .  S
O625        C646   1.264       .  A
O626       Ni649   1.915       .  S
O626        C635   1.271       .  A
O627       Ni631   1.903       .  S
O627       Ni649   1.899       .  S
O627       Ni643   1.926       .  S
O627        H650   0.967       .  S
C628        O645   1.284       .  A
C628        O637   1.278       .  A
C628       C1134   1.471       .  S
O629       Ni648   1.929       .  S
O629        C635   1.272       .  A
O630       Ni648   1.905       .  S
O630        C632   1.268       .  A
Ni631       O634   1.929       .  S
Ni631       O636   1.899       .  S
C632        O642   1.277       .  A
C632       C1149   1.501       .  S
O633       Ni649   1.920       .  S
O633        C639   1.280       .  A
O634        C639   1.280       .  A
C635       C1749   1.490       .  S
O636        C638   1.267       .  A
O637       Ni648   1.916       .  S
C638        O644   1.271       .  A
C638       C2517   1.490       .  S
C639       C1101   1.484       .  S
H640        O641   0.966       .  S
O641       Ni649   1.916       .  S
O641       Ni643   1.903       .  S
O641       Ni648   1.888       .  S
O642       Ni643   1.941       .  S
Ni643       O647   1.931       .  S
Ni643       O645   1.938       .  S
O644       Ni649   1.931       .  S
C646        O647   1.270       .  A
C646       C2214   1.470       .  S
O651       Ni657   1.908       .  S
O651        C672   1.263       .  A
O652       Ni675   1.923       .  S
O652        C661   1.273       .  A
O653       Ni657   1.898       .  S
O653       Ni675   1.903       .  S
O653       Ni669   1.921       .  S
O653        H676   0.968       .  S
C654        O671   1.283       .  A
C654        O663   1.279       .  A
C654       C1110   1.478       .  S
O655       Ni674   1.928       .  S
O655        C661   1.273       .  A
O656       Ni674   1.900       .  S
O656        C658   1.267       .  A
Ni657       O660   1.916   1_556  S
Ni657       O662   1.900       .  S
C658        O668   1.277       .  A
C658       C1077   1.495       .  S
O659       Ni675   1.935   1_554  S
O659        C665   1.284       .  A
O660        C665   1.278       .  A
C661       C1854   1.495       .  S
O662        C664   1.266       .  A
O663       Ni674   1.920       .  S
C664        O670   1.275       .  A
C664       C2613   1.493       .  S
C665       C1125   1.491       .  S
H666        O667   0.966       .  S
O667       Ni675   1.922       .  S
O667       Ni669   1.910       .  S
O667       Ni674   1.893       .  S
O668       Ni669   1.941       .  S
Ni669       O673   1.941       .  S
Ni669       O671   1.934       .  S
O670       Ni675   1.944       .  S
C672        O673   1.272       .  A
C672       C2133   1.480       .  S
O677       Ni683   1.903       .  S
O677        C698   1.262       .  A
O678       Ni701   1.921       .  S
O678        C687   1.272       .  A
O679       Ni683   1.897       .  S
O679       Ni701   1.900       .  S
O679       Ni695   1.923       .  S
O679        H702   0.967       .  S
C680        O697   1.283       .  A
C680        O689   1.279       .  A
C680       C1062   1.475       .  S
O681       Ni700   1.932       .  S
O681        C687   1.276       .  A
O682       Ni700   1.918       .  S
O682        C684   1.273       .  A
Ni683       O686   1.910       .  S
Ni683       O688   1.903       .  S
C684        O694   1.275       .  A
C684       C1158   1.500       .  S
O685       Ni701   1.930       .  S
O685        C691   1.283       .  A
O686        C691   1.277       .  A
C687       C1518   1.496       .  S
O688        C690   1.267       .  A
O689       Ni700   1.917       .  S
C690        O696   1.274       .  A
C690       C1005   1.497       .  S
C691       C1029   1.484       .  S
H692        O693   0.966       .  S
O693       Ni701   1.918       .  S
O693       Ni695   1.906       .  S
O693       Ni700   1.888       .  S
O694       Ni695   1.936       .  S
Ni695       O699   1.935       .  S
Ni695       O697   1.931       .  S
O696       Ni701   1.939       .  S
C698        O699   1.270       .  A
C698       C2022   1.473       .  S
O703       Ni709   1.906       .  S
O703        C724   1.262       .  A
O704       Ni727   1.911       .  S
O704        C713   1.269       .  A
O705       Ni709   1.894       .  S
O705       Ni727   1.898       .  S
O705       Ni721   1.914       .  S
O705        H728   0.967       .  S
C706        O723   1.283       .  A
C706        O715   1.279       .  A
C706       C1038   1.481       .  S
O707       Ni726   1.930       .  S
O707        C713   1.273       .  A
O708       Ni726   1.905       .  S
O708        C710   1.270       .  A
Ni709       O712   1.916       .  S
Ni709       O714   1.896       .  S
C710        O720   1.277       .  A
C710       C1086   1.488       .  S
O711       Ni727   1.928       .  S
O711        C717   1.283       .  A
O712        C717   1.280       .  A
C713       C1446   1.480       .  S
O714        C716   1.264       .  A
O715       Ni726   1.917       .  S
C716        O722   1.269       .  A
C716        C981   1.484       .  S
C717       C1053   1.489       .  S
H718        O719   0.966       .  S
O719       Ni727   1.916       .  S
O719       Ni721   1.902       .  S
O719       Ni726   1.884       .  S
O720       Ni721   1.938       .  S
Ni721       O725   1.938       .  S
Ni721       O723   1.929       .  S
O722       Ni727   1.929       .  S
C724        O725   1.272       .  A
C724       C1941   1.474       .  S
O729       Ni735   1.930       .  S
O729        C750   1.273       .  A
O730       Ni753   1.942       .  S
O730        C739   1.274       .  A
O731       Ni735   1.886       .  S
O731       Ni753   1.912       .  S
O731       Ni747   1.918       .  S
O731        H754   0.966       .  S
C732        O749   1.281       .  A
C732        O741   1.279       .  A
C732        C942   1.483       .  S
O733       Ni752   1.907       .  S
O733        C739   1.262       .  A
O734       Ni752   1.898       .  S
O734        C736   1.265       .  A
Ni735       O738   1.913   1_554  S
Ni735       O740   1.902   1_554  S
C736        O746   1.270       .  A
C736       C1278   1.482       .  S
O737       Ni753   1.937   1_556  S
O737        C743   1.284       .  A
O738        C743   1.278       .  A
C739       C2565   1.478       .  S
O740        C742   1.271   1_556  A
O741       Ni752   1.921       .  S
C742        O748   1.277       .  A
C742        C957   1.494   1_554  S
C743        C918   1.482       .  S
H744        O745   0.967       .  S
O745       Ni753   1.921       .  S
O745       Ni747   1.901       .  S
O745       Ni752   1.899       .  S
O746       Ni747   1.934       .  S
Ni747       O751   1.920       .  S
Ni747       O749   1.922       .  S
O748       Ni753   1.940       .  S
C750        O751   1.271       .  A
C750       C1014   1.495       .  S
O755       Ni761   1.937       .  S
O755        C776   1.276       .  A
O756       Ni779   1.922       .  S
O756        C765   1.267       .  A
O757       Ni761   1.895       .  S
O757       Ni779   1.903       .  S
O757       Ni773   1.916       .  S
O757        H780   0.966       .  S
C758        O775   1.282       .  A
C758        O767   1.278       .  A
C758        C909   1.482       .  S
O759       Ni778   1.906       .  S
O759        C765   1.263       .  A
O760       Ni778   1.904       .  S
O760        C762   1.266       .  A
Ni761       O764   1.919       .  S
Ni761       O766   1.915       .  S
C762        O772   1.272       .  A
C762       C1221   1.489       .  S
O763       Ni779   1.922       .  S
O763        C769   1.279       .  A
O764        C769   1.279       .  A
C765       C2478   1.463       .  S
O766        C768   1.272       .  A
O767       Ni778   1.917       .  S
C768        O774   1.276       .  A
C768        C894   1.498       .  S
C769        C933   1.470       .  S
H770        O771   0.967       .  S
O771       Ni779   1.920       .  S
O771       Ni773   1.895       .  S
O771       Ni778   1.900       .  S
O772       Ni773   1.938       .  S
Ni773       O777   1.904       .  S
Ni773       O775   1.931       .  S
O774       Ni779   1.942       .  S
C776        O777   1.269       .  A
C776        C990   1.488       .  S
O781       Ni787   1.940       .  S
O781        C802   1.277       .  A
O782       Ni805   1.926       .  S
O782        C791   1.271       .  A
O783       Ni787   1.887       .  S
O783       Ni805   1.905       .  S
O783       Ni799   1.917       .  S
O783        H806   0.966       .  S
C784        O801   1.283       .  A
C784        O793   1.278       .  A
C784        C861   1.483       .  S
O785       Ni804   1.909       .  S
O785        C791   1.264       .  A
O786       Ni804   1.908       .  S
O786        C788   1.267       .  A
Ni787       O790   1.925       .  S
Ni787       O792   1.914       .  S
C788        O798   1.271       .  A
C788       C2829   1.486       .  S
O789       Ni805   1.930       .  S
O789        C795   1.282       .  A
O790        C795   1.279       .  A
C791       C2382   1.466       .  S
O792        C794   1.273       .  A
O793       Ni804   1.915       .  S
C794        O800   1.278       .  A
C794        C885   1.505       .  S
C795        C837   1.481       .  S
H796        O797   0.966       .  S
O797       Ni805   1.923       .  S
O797       Ni799   1.891       .  S
O797       Ni804   1.897       .  S
O798       Ni799   1.933       .  S
Ni799       O803   1.905       .  S
Ni799       O801   1.936       .  S
O800       Ni805   1.947       .  S
C802        O803   1.270       .  A
C802       C2070   1.490       .  S
O807       Ni813   1.929       .  S
O807        C828   1.272       .  A
O808       Ni831   1.935       .  S
O808        C817   1.272       .  A
O809       Ni813   1.884       .  S
O809       Ni831   1.902       .  S
O809       Ni825   1.914       .  S
O809        H832   0.966       .  S
C810        O827   1.281       .  A
C810        O819   1.279       .  A
C810        C846   1.491       .  S
O811       Ni830   1.911       .  S
O811        C817   1.265       .  A
O812       Ni830   1.900       .  S
O812        C814   1.267       .  A
Ni813       O816   1.913       .  S
Ni813       O818   1.904       .  S
C814        O824   1.273       .  A
C814       C2766   1.495       .  S
O815       Ni831   1.947       .  S
O815        C821   1.288       .  A
O816        C821   1.280       .  A
C817       C2334   1.475       .  S
O818        C820   1.269       .  A
O819       Ni830   1.924       .  S
C820        O826   1.274       .  A
C820        C966   1.495       .  S
C821        C870   1.485       .  S
H822        O823   0.967       .  S
O823       Ni831   1.927       .  S
O823       Ni825   1.902       .  S
O823       Ni830   1.899       .  S
O824       Ni825   1.938       .  S
Ni825       O829   1.916       .  S
Ni825       O827   1.930       .  S
O826       Ni831   1.936       .  S
C828        O829   1.270       .  A
C828       C1998   1.477       .  S
C833        C834   1.401       .  A
C833        C838   1.401       .  A
C833        H843   1.084       .  S
C834        C839   1.481       .  S
C834        C835   1.408       .  A
C835        C836   1.403       .  A
C835        O840   1.372       .  S
C836        C837   1.404       .  A
C836        H841   1.084       .  S
C837        C838   1.412       .  A
C838        O842   1.372       .  S
C839        C844   1.403       .  A
C839        C848   1.405       .  A
O840        H856   0.992       .  S
O842        H853   0.992       .  S
C844        C845   1.397       .  A
C844        O849   1.372       .  S
C845        C846   1.410       .  A
C845        H850   1.083       .  S
C846        C847   1.413       .  A
C847        C848   1.406       .  A
C847        O851   1.371       .  S
C848        H852   1.084       .  S
O849        H854   0.992       .  S
O851        H855   0.992       .  S
C857        C858   1.402       .  A
C857        C862   1.399       .  A
C857        H867   1.083       .  S
C858        C863   1.486       .  S
C858        C859   1.411       .  A
C859        C860   1.402       .  A
C859        O864   1.372       .  S
C860        C861   1.405       .  A
C860        H865   1.084       .  S
C861        C862   1.412       .  A
C862        O866   1.372       .  S
C863        C868   1.412       .  A
C863        C872   1.399       .  A
O864        H880   0.992       .  S
O866        H877   0.992       .  S
C868        C869   1.405   1_554  A
C868        O873   1.372       .  S
C869        C870   1.404       .  A
C869        H874   1.083       .  S
C870        C871   1.416       .  A
C871        C872   1.398   1_556  A
C871        O875   1.372       .  S
C872        H876   1.084       .  S
O873        H878   0.992       .  S
O875        H879   0.992       .  S
C881        C882   1.407       .  A
C881        C886   1.414       .  A
C881        H891   1.083       .  S
C882        C887   1.496       .  S
C882        C883   1.405       .  A
C883        C884   1.402       .  A
C883        O888   1.372       .  S
C884        C885   1.411       .  A
C884        H889   1.083       .  S
C885        C886   1.417       .  A
C886        O890   1.371       .  S
C887        C892   1.407       .  A
C887        C896   1.408       .  A
O888        H904   0.992       .  S
O890        H901   0.992       .  S
C892        C893   1.402       .  A
C892        O897   1.372       .  S
C893        C894   1.409       .  A
C893        H898   1.084       .  S
C894        C895   1.414       .  A
C895        C896   1.413       .  A
C895        O899   1.371       .  S
C896        H900   1.083       .  S
O897        H902   0.992       .  S
O899        H903   0.992       .  S
C905        C906   1.401       .  A
C905        C910   1.400       .  A
C905        H915   1.083       .  S
C906        C911   1.484       .  S
C906        C907   1.411       .  A
C907        C908   1.401       .  A
C907        O912   1.372       .  S
C908        C909   1.404       .  A
C908        H913   1.084       .  S
C909        C910   1.413       .  A
C910        O914   1.372       .  S
C911        C916   1.412       .  A
C911        C920   1.399       .  A
O912        H928   0.992       .  S
O914        H925   0.992       .  S
C916        C917   1.405       .  A
C916        O921   1.372       .  S
C917        C918   1.404       .  A
C917        H922   1.083       .  S
C918        C919   1.415       .  A
C919        C920   1.395       .  A
C919        O923   1.372       .  S
C920        H924   1.084       .  S
O921        H926   0.992       .  S
O923        H927   0.992       .  S
C929        C930   1.406       .  A
C929        C934   1.402       .  A
C929        H939   1.083       .  S
C930        C935   1.479       .  S
C930        C931   1.406       .  A
C931        C932   1.394       .  A
C931        O936   1.372       .  S
C932        C933   1.403       .  A
C932        H937   1.084       .  S
C933        C934   1.407       .  A
C934        O938   1.372       .  S
C935        C940   1.405       .  A
C935        C944   1.403       .  A
O936        H952   0.992       .  S
O938        H949   0.992       .  S
C940        C941   1.400       .  A
C940        O945   1.372       .  S
C941        C942   1.409       .  A
C941        H946   1.083       .  S
C942        C943   1.411       .  A
C943        C944   1.398       .  A
C943        O947   1.371       .  S
C944        H948   1.084       .  S
O945        H950   0.992       .  S
O947        H951   0.992       .  S
C953        C954   1.407       .  A
C953        C958   1.410       .  A
C953        H963   1.083       .  S
C954        C959   1.488       .  S
C954        C955   1.405       .  A
C955        C956   1.396       .  A
C955        O960   1.374       .  S
C956        C957   1.410       .  A
C956        H961   1.083       .  S
C957        C958   1.414       .  A
C958        O962   1.371   1_556  S
C959        C964   1.406       .  A
C959        C968   1.406       .  A
O960        H976   0.992       .  S
O962        H973   0.992       .  S
C964        C965   1.395       .  A
C964        O969   1.372       .  S
C965        C966   1.410       .  A
C965        H970   1.083       .  S
C966        C967   1.415       .  A
C967        C968   1.410       .  A
C967        O971   1.371       .  S
C968        H972   1.083       .  S
O969        H974   0.992       .  S
O971        H975   0.992       .  S
C977        C978   1.404       .  A
C977        C982   1.403       .  A
C977        H987   1.083       .  S
C978        C983   1.481   1_565  S
C978        C979   1.406       .  A
C979        C980   1.395       .  A
C979        O984   1.372       .  S
C980        C981   1.406       .  A
C980        H985   1.084       .  S
C981        C982   1.413       .  A
C982        O986   1.372       .  S
C983        C988   1.405       .  A
C983        C992   1.402       .  A
O984       H1000   0.992       .  S
O986        H997   0.992       .  S
C988        C989   1.403       .  A
C988        O993   1.372       .  S
C989        C990   1.410       .  A
C989        H994   1.083       .  S
C990        C991   1.413       .  A
C991        C992   1.397       .  A
C991        O995   1.371       .  S
C992        H996   1.084   1_545  S
O993        H998   0.992       .  S
O995        H999   0.992       .  S
C1001      C1002   1.401       .  A
C1001      C1006   1.401       .  A
C1001      H1011   1.084       .  S
C1002      C1007   1.488   1_565  S
C1002      C1003   1.408       .  A
C1003      C1004   1.406       .  A
C1003      O1008   1.371       .  S
C1004      C1005   1.410       .  A
C1004      H1009   1.083       .  S
C1005      C1006   1.417       .  A
C1006      O1010   1.372       .  S
C1007      C1012   1.407       .  A
C1007      C1016   1.404       .  A
O1008      H1024   0.992       .  S
O1010      H1021   0.992       .  S
C1012      C1013   1.401       .  A
C1012      O1017   1.372   1_545  S
C1013      C1014   1.409       .  A
C1013      H1018   1.083       .  S
C1014      C1015   1.415       .  A
C1015      C1016   1.407       .  A
C1015      O1019   1.370       .  S
C1016      H1020   1.083       .  S
O1017      H1022   0.992       .  S
O1019      H1023   0.992       .  S
C1025      C1026   1.398       .  A
C1025      C1030   1.393   1_556  A
C1025      H1035   1.084       .  S
C1026      C1031   1.479       .  S
C1026      C1027   1.410   1_556  A
C1027      C1028   1.402       .  A
C1027      O1032   1.371   1_554  S
C1028      C1029   1.406       .  A
C1028      H1033   1.083       .  S
C1029      C1030   1.417       .  A
C1030      O1034   1.372       .  S
C1031      C1036   1.408       .  A
C1031      C1040   1.401       .  A
O1032      H1048   0.992       .  S
O1034      H1045   0.992       .  S
C1036      C1037   1.398       .  A
C1036      O1041   1.373       .  S
C1037      C1038   1.405       .  A
C1037      H1042   1.084       .  S
C1038      C1039   1.414       .  A
C1039      C1040   1.399       .  A
C1039      O1043   1.371       .  S
C1040      H1044   1.084       .  S
O1041      H1046   0.992       .  S
O1043      H1047   0.992       .  S
C1049      C1050   1.407       .  A
C1049      C1054   1.405       .  A
C1049      H1059   1.083       .  S
C1050      C1055   1.484       .  S
C1050      C1051   1.405       .  A
C1051      C1052   1.393       .  A
C1051      O1056   1.372       .  S
C1052      C1053   1.409       .  A
C1052      H1057   1.083       .  S
C1053      C1054   1.413       .  A
C1054      O1058   1.372       .  S
C1055      C1060   1.408       .  A
C1055      C1064   1.406       .  A
O1056      H1072   0.992       .  S
O1058      H1069   0.992       .  S
C1060      C1061   1.401       .  A
C1060      O1065   1.372       .  S
C1061      C1062   1.405       .  A
C1061      H1066   1.084       .  S
C1062      C1063   1.408       .  A
C1063      C1064   1.398       .  A
C1063      O1067   1.372       .  S
C1064      H1068   1.083       .  S
O1065      H1070   0.992       .  S
O1067      H1071   0.992       .  S
C1073      C1074   1.402       .  A
C1073      C1078   1.399       .  A
C1073      H1083   1.083       .  S
C1074      C1079   1.491       .  S
C1074      C1075   1.409       .  A
C1075      C1076   1.406       .  A
C1075      O1080   1.371       .  S
C1076      C1077   1.409       .  A
C1076      H1081   1.083       .  S
C1077      C1078   1.417       .  A
C1078      O1082   1.372       .  S
C1079      C1084   1.407       .  A
C1079      C1088   1.409       .  A
O1080      H1096   0.992       .  S
O1082      H1093   0.992       .  S
C1084      C1085   1.398       .  A
C1084      O1089   1.373       .  S
C1085      C1086   1.408       .  A
C1085      H1090   1.084       .  S
C1086      C1087   1.409       .  A
C1087      C1088   1.407       .  A
C1087      O1091   1.371       .  S
C1088      H1092   1.083       .  S
O1089      H1094   0.992       .  S
O1091      H1095   0.992       .  S
C1097      C1098   1.403       .  A
C1097      C1102   1.402       .  A
C1097      H1107   1.084       .  S
C1098      C1103   1.482       .  S
C1098      C1099   1.406       .  A
C1099      C1100   1.401       .  A
C1099      O1104   1.372       .  S
C1100      C1101   1.406       .  A
C1100      H1105   1.083       .  S
C1101      C1102   1.412       .  A
C1102      O1106   1.372       .  S
C1103      C1108   1.410       .  A
C1103      C1112   1.401       .  A
O1104      H1120   0.992       .  S
O1106      H1117   0.992       .  S
C1108      C1109   1.404       .  A
C1108      O1113   1.371       .  S
C1109      C1110   1.403       .  A
C1109      H1114   1.083       .  S
C1110      C1111   1.411       .  A
C1111      C1112   1.398       .  A
C1111      O1115   1.372       .  S
C1112      H1116   1.084       .  S
O1113      H1118   0.992       .  S
O1115      H1119   0.992       .  S
C1121      C1122   1.398       .  A
C1121      C1126   1.398       .  A
C1121      H1131   1.084       .  S
C1122      C1127   1.481       .  S
C1122      C1123   1.408       .  A
C1123      C1124   1.405       .  A
C1123      O1128   1.372       .  S
C1124      C1125   1.407       .  A
C1124      H1129   1.083       .  S
C1125      C1126   1.418       .  A
C1126      O1130   1.372       .  S
C1127      C1132   1.405       .  A
C1127      C1136   1.408       .  A
O1128      H1144   0.992       .  S
O1130      H1141   0.992       .  S
C1132      C1133   1.397       .  A
C1132      O1137   1.371       .  S
C1133      C1134   1.403       .  A
C1133      H1138   1.084       .  S
C1134      C1135   1.406       .  A
C1135      C1136   1.405       .  A
C1135      O1139   1.371       .  S
C1136      H1140   1.083       .  S
O1137      H1142   0.992       .  S
O1139      H1143   0.992       .  S
C1145      C1146   1.402       .  A
C1145      C1150   1.400       .  A
C1145      H1155   1.083       .  S
C1146      C1151   1.497       .  S
C1146      C1147   1.411       .  A
C1147      C1148   1.409       .  A
C1147      O1152   1.371       .  S
C1148      C1149   1.410       .  A
C1148      H1153   1.083       .  S
C1149      C1150   1.419       .  A
C1150      O1154   1.372       .  S
C1151      C1156   1.408       .  A
C1151      C1160   1.407       .  A
O1152      H1168   0.992       .  S
O1154      H1165   0.992       .  S
C1156      C1157   1.402       .  A
C1156      O1161   1.373       .  S
C1157      C1158   1.409       .  A
C1157      H1162   1.083       .  S
C1158      C1159   1.415       .  A
C1159      C1160   1.410       .  A
C1159      O1163   1.371       .  S
C1160      H1164   1.083       .  S
O1161      H1166   0.992       .  S
O1163      H1167   0.992       .  S
C1169      C1170   1.405       .  A
C1169      C1174   1.404       .  A
C1169      H1179   1.084       .  S
C1170      C1175   1.477       .  S
C1170      C1171   1.402       .  A
C1171      C1172   1.393       .  A
C1171      O1176   1.372       .  S
C1172      C1173   1.409       .  A
C1172      H1177   1.083       .  S
C1173      C1174   1.412       .  A
C1174      O1178   1.372       .  S
C1175      C1180   1.404       .  A
C1175      C1184   1.402       .  A
O1176      H1192   0.992       .  S
O1178      H1189   0.992       .  S
C1180      C1181   1.398       .  A
C1180      O1185   1.372       .  S
C1181      C1182   1.408       .  A
C1181      H1186   1.083       .  S
C1182      C1183   1.413       .  A
C1183      C1184   1.399       .  A
C1183      O1187   1.372       .  S
C1184      H1188   1.084       .  S
O1185      H1190   0.992       .  S
O1187      H1191   0.992       .  S
C1193      C1194   1.404       .  A
C1193      C1198   1.399       .  A
C1193      H1203   1.083       .  S
C1194      C1199   1.487       .  S
C1194      C1195   1.411       .  A
C1195      C1196   1.401       .  A
C1195      O1200   1.372       .  S
C1196      C1197   1.405       .  A
C1196      H1201   1.084       .  S
C1197      C1198   1.410       .  A
C1198      O1202   1.371       .  S
C1199      C1204   1.410       .  A
C1199      C1208   1.400       .  A
O1200      H1216   0.992       .  S
O1202      H1213   0.992       .  S
C1204      C1205   1.404       .  A
C1204      O1209   1.372       .  S
C1205      C1206   1.407       .  A
C1205      H1210   1.083       .  S
C1206      C1207   1.418       .  A
C1207      C1208   1.397       .  A
C1207      O1211   1.372       .  S
C1208      H1212   1.084       .  S
O1209      H1214   0.992       .  S
O1211      H1215   0.992       .  S
C1217      C1218   1.401       .  A
C1217      C1222   1.402       .  A
C1217      H1227   1.084       .  S
C1218      C1223   1.484       .  S
C1218      C1219   1.407       .  A
C1219      C1220   1.405       .  A
C1219      O1224   1.371       .  S
C1220      C1221   1.407       .  A
C1220      H1225   1.083       .  S
C1221      C1222   1.415       .  A
C1222      O1226   1.372       .  S
C1223      C1228   1.406       .  A
C1223      C1232   1.401       .  A
O1224      H1240   0.991       .  S
O1226      H1237   0.992       .  S
C1228      C1229   1.405       .  A
C1228      O1233   1.371       .  S
C1229      C1230   1.410       .  A
C1229      H1234   1.083       .  S
C1230      C1231   1.416       .  A
C1231      C1232   1.401       .  A
C1231      O1235   1.372       .  S
C1232      H1236   1.084       .  S
O1233      H1238   0.992       .  S
O1235      H1239   0.992       .  S
C1241      C1242   1.409       .  A
C1241      C1246   1.409       .  A
C1241      H1251   1.083       .  S
C1242      C1247   1.496       .  S
C1242      C1243   1.408       .  A
C1243      C1244   1.400       .  A
C1243      O1248   1.372       .  S
C1244      C1245   1.409       .  A
C1244      H1249   1.084       .  S
C1245      C1246   1.411       .  A
C1246      O1250   1.371       .  S
C1247      C1252   1.411       .  A
C1247      C1256   1.404       .  A
O1248      H1264   0.992       .  S
O1250      H1261   0.992       .  S
C1252      C1253   1.406       .  A
C1252      O1257   1.371       .  S
C1253      C1254   1.408       .  A
C1253      H1258   1.083       .  S
C1254      C1255   1.415       .  A
C1255      C1256   1.403       .  A
C1255      O1259   1.372       .  S
C1256      H1260   1.084       .  S
O1257      H1262   0.992       .  S
O1259      H1263   0.992       .  S
C1265      C1266   1.402       .  A
C1265      C1270   1.398       .  A
C1265      H1275   1.084       .  S
C1266      C1271   1.484       .  S
C1266      C1267   1.407       .  A
C1267      C1268   1.406       .  A
C1267      O1272   1.372       .  S
C1268      C1269   1.409       .  A
C1268      H1273   1.083       .  S
C1269      C1270   1.413       .  A
C1270      O1274   1.372       .  S
C1271      C1276   1.410       .  A
C1271      C1280   1.402       .  A
O1272      H1288   0.992       .  S
O1274      H1285   0.992       .  S
C1276      C1277   1.405       .  A
C1276      O1281   1.371       .  S
C1277      C1278   1.405       .  A
C1277      H1282   1.084       .  S
C1278      C1279   1.411       .  A
C1279      C1280   1.397       .  A
C1279      O1283   1.372       .  S
C1280      H1284   1.084       .  S
O1281      H1286   0.992       .  S
O1283      H1287   0.992       .  S
C1289      C1290   1.403       .  A
C1289      C1294   1.401       .  A
C1289      H1299   1.084       .  S
C1290      C1295   1.478       .  S
C1290      C1291   1.405       .  A
C1291      C1292   1.398       .  A
C1291      O1296   1.372       .  S
C1292      C1293   1.406       .  A
C1292      H1297   1.084       .  S
C1293      C1294   1.412       .  A
C1294      O1298   1.372       .  S
C1295      C1300   1.403       .  A
C1295      C1304   1.404       .  A
O1296      H1312   0.992       .  S
O1298      H1309   0.992       .  S
C1300      C1301   1.397   1_556  A
C1300      O1305   1.372       .  S
C1301      C1302   1.410       .  A
C1301      H1306   1.083       .  S
C1302      C1303   1.413       .  A
C1303      C1304   1.402   1_554  A
C1303      O1307   1.371       .  S
C1304      H1308   1.084       .  S
O1305      H1310   0.992       .  S
O1307      H1311   0.992       .  S
C1313      C1314   1.407       .  A
C1313      C1318   1.401       .  A
C1313      H1323   1.084       .  S
C1314      C1319   1.484       .  S
C1314      C1315   1.407       .  A
C1315      C1316   1.398       .  A
C1315      O1320   1.373       .  S
C1316      C1317   1.406       .  A
C1316      H1321   1.084       .  S
C1317      C1318   1.408       .  A
C1318      O1322   1.371       .  S
C1319      C1324   1.412       .  A
C1319      C1328   1.401       .  A
O1320      H1336   0.992       .  S
O1322      H1333   0.992       .  S
C1324      C1325   1.402       .  A
C1324      O1329   1.371       .  S
C1325      C1326   1.404       .  A
C1325      H1330   1.084       .  S
C1326      C1327   1.414       .  A
C1327      C1328   1.396       .  A
C1327      O1331   1.372       .  S
C1328      H1332   1.084       .  S
O1329      H1334   0.992       .  S
O1331      H1335   0.992       .  S
C1337      C1338   1.401       .  A
C1337      C1342   1.399       .  A
C1337      H1347   1.084       .  S
C1338      C1343   1.496       .  S
C1338      C1339   1.412       .  A
C1339      C1340   1.411       .  A
C1339      O1344   1.371       .  S
C1340      C1341   1.409       .  A
C1340      H1345   1.083       .  S
C1341      C1342   1.419       .  A
C1342      O1346   1.372       .  S
C1343      C1348   1.408       .  A
C1343      C1352   1.408       .  A
O1344      H1360   0.992       .  S
O1346      H1357   0.992       .  S
C1348      C1349   1.398       .  A
C1348      O1353   1.372       .  S
C1349      C1350   1.410       .  A
C1349      H1354   1.083       .  S
C1350      C1351   1.415       .  A
C1351      C1352   1.411       .  A
C1351      O1355   1.371       .  S
C1352      H1356   1.083       .  S
O1353      H1358   0.992       .  S
O1355      H1359   0.992       .  S
C1361      C1362   1.400       .  A
C1361      C1366   1.395       .  A
C1361      H1371   1.083       .  S
C1362      C1367   1.486       .  S
C1362      C1363   1.411       .  A
C1363      C1364   1.404       .  A
C1363      O1368   1.371       .  S
C1364      C1365   1.407       .  A
C1364      H1369   1.083       .  S
C1365      C1366   1.415       .  A
C1366      O1370   1.372       .  S
C1367      C1372   1.411       .  A
C1367      C1376   1.403       .  A
O1368      H1384   0.992       .  S
O1370      H1381   0.992       .  S
C1372      C1373   1.400       .  A
C1372      O1377   1.373       .  S
C1373      C1374   1.403       .  A
C1373      H1378   1.084       .  S
C1374      C1375   1.414       .  A
C1375      C1376   1.400       .  A
C1375      O1379   1.372       .  S
C1376      H1380   1.083       .  S
O1377      H1382   0.992       .  S
O1379      H1383   0.992       .  S
C1385      C1386   1.404       .  A
C1385      C1390   1.402   1_554  A
C1385      H1395   1.083       .  S
C1386      C1391   1.479       .  S
C1386      C1387   1.405       .  A
C1387      C1388   1.395   1_554  A
C1387      O1392   1.372       .  S
C1388      C1389   1.408       .  A
C1388      H1393   1.083       .  S
C1389      C1390   1.411       .  A
C1390      O1394   1.372       .  S
C1391      C1396   1.407       .  A
C1391      C1400   1.403       .  A
O1392      H1408   0.992       .  S
O1394      H1405   0.992       .  S
C1396      C1397   1.400       .  A
C1396      O1401   1.372       .  S
C1397      C1398   1.404       .  A
C1397      H1402   1.084       .  S
C1398      C1399   1.408       .  A
C1399      C1400   1.398       .  A
C1399      O1403   1.372       .  S
C1400      H1404   1.084       .  S
O1401      H1406   0.992       .  S
O1403      H1407   0.992       .  S
C1409      C1410   1.405   1_565  A
C1409      C1414   1.410       .  A
C1409      H1419   1.083       .  S
C1410      C1415   1.493       .  S
C1410      C1411   1.408       .  A
C1411      C1412   1.401   1_545  A
C1411      O1416   1.372       .  S
C1412      C1413   1.408       .  A
C1412      H1417   1.083       .  S
C1413      C1414   1.417       .  A
C1414      O1418   1.371       .  S
C1415      C1420   1.409       .  A
C1415      C1424   1.402       .  A
O1416      H1432   0.992       .  S
O1418      H1429   0.992       .  S
C1420      C1421   1.409       .  A
C1420      O1425   1.371       .  S
C1421      C1422   1.410       .  A
C1421      H1426   1.083       .  S
C1422      C1423   1.417       .  A
C1423      C1424   1.402       .  A
C1423      O1427   1.372       .  S
C1424      H1428   1.084       .  S
O1425      H1430   0.992       .  S
O1427      H1431   0.992       .  S
C1433      C1434   1.407       .  A
C1433      C1438   1.406       .  A
C1433      H1443   1.083       .  S
C1434      C1439   1.488       .  S
C1434      C1435   1.410       .  A
C1435      C1436   1.396       .  A
C1435      O1440   1.372       .  S
C1436      C1437   1.402       .  A
C1436      H1441   1.084       .  S
C1437      C1438   1.408       .  A
C1438      O1442   1.371       .  S
C1439      C1444   1.409       .  A
C1439      C1448   1.405       .  A
O1440      H1456   0.992       .  S
O1442      H1453   0.992       .  S
C1444      C1445   1.404       .  A
C1444      O1449   1.372       .  S
C1445      C1446   1.406       .  A
C1445      H1450   1.084       .  S
C1446      C1447   1.409       .  A
C1447      C1448   1.398       .  A
C1447      O1451   1.372       .  S
C1448      H1452   1.084       .  S
O1449      H1454   0.992       .  S
O1451      H1455   0.992       .  S
C1457      C1458   1.406       .  A
C1457      C1462   1.402       .  A
C1457      H1467   1.083       .  S
C1458      C1463   1.495       .  S
C1458      C1459   1.410       .  A
C1459      C1460   1.405       .  A
C1459      O1464   1.372       .  S
C1460      C1461   1.409       .  A
C1460      H1465   1.084       .  S
C1461      C1462   1.412       .  A
C1462      O1466   1.371       .  S
C1463      C1468   1.412       .  A
C1463      C1472   1.403       .  A
O1464      H1480   0.992       .  S
O1466      H1477   0.992       .  S
C1468      C1469   1.405       .  A
C1468      O1473   1.372       .  S
C1469      C1470   1.405       .  A
C1469      H1474   1.083       .  S
C1470      C1471   1.417       .  A
C1471      C1472   1.404       .  A
C1471      O1475   1.372       .  S
C1472      H1476   1.083       .  S
O1473      H1478   0.992       .  S
O1475      H1479   0.992       .  S
C1481      C1482   1.404       .  A
C1481      C1486   1.403       .  A
C1481      H1491   1.084       .  S
C1482      C1487   1.498       .  S
C1482      C1483   1.412       .  A
C1483      C1484   1.407       .  A
C1483      O1488   1.371       .  S
C1484      C1485   1.408       .  A
C1484      H1489   1.083       .  S
C1485      C1486   1.416       .  A
C1486      O1490   1.372       .  S
C1487      C1492   1.411       .  A
C1487      C1496   1.407   1_545  A
O1488      H1504   0.992       .  S
O1490      H1501   0.992       .  S
C1492      C1493   1.401   1_545  A
C1492      O1497   1.372       .  S
C1493      C1494   1.409       .  A
C1493      H1498   1.083       .  S
C1494      C1495   1.414       .  A
C1495      C1496   1.408       .  A
C1495      O1499   1.371       .  S
C1496      H1500   1.083       .  S
O1497      H1502   0.992       .  S
O1499      H1503   0.991       .  S
C1505      C1506   1.406       .  A
C1505      C1510   1.410       .  A
C1505      H1515   1.083       .  S
C1506      C1511   1.493       .  S
C1506      C1507   1.407       .  A
C1507      C1508   1.400       .  A
C1507      O1512   1.373       .  S
C1508      C1509   1.410       .  A
C1508      H1513   1.083       .  S
C1509      C1510   1.416       .  A
C1510      O1514   1.371       .  S
C1511      C1516   1.409       .  A
C1511      C1520   1.405       .  A
O1512      H1528   0.992       .  S
O1514      H1525   0.992       .  S
C1516      C1517   1.399       .  A
C1516      O1521   1.372       .  S
C1517      C1518   1.407       .  A
C1517      H1522   1.083       .  S
C1518      C1519   1.416       .  A
C1519      C1520   1.409       .  A
C1519      O1523   1.371       .  S
C1520      H1524   1.083       .  S
O1521      H1526   0.992       .  S
O1523      H1527   0.992       .  S
C1529      C1530   1.406       .  A
C1529      C1534   1.403       .  A
C1529      H1539   1.083       .  S
C1530      C1535   1.479       .  S
C1530      C1531   1.404       .  A
C1531      C1532   1.392       .  A
C1531      O1536   1.372       .  S
C1532      C1533   1.408       .  A
C1532      H1537   1.083       .  S
C1533      C1534   1.412       .  A
C1534      O1538   1.372       .  S
C1535      C1540   1.407       .  A
C1535      C1544   1.404       .  A
O1536      H1552   0.992       .  S
O1538      H1549   0.992       .  S
C1540      C1541   1.399       .  A
C1540      O1545   1.372       .  S
C1541      C1542   1.405       .  A
C1541      H1546   1.084       .  S
C1542      C1543   1.408       .  A
C1543      C1544   1.397       .  A
C1543      O1547   1.372       .  S
C1544      H1548   1.084       .  S
O1545      H1550   0.992       .  S
O1547      H1551   0.992       .  S
C1553      C1554   1.406       .  A
C1553      C1558   1.401       .  A
C1553      H1563   1.084       .  S
C1554      C1559   1.485       .  S
C1554      C1555   1.406       .  A
C1555      C1556   1.398       .  A
C1555      O1560   1.372       .  S
C1556      C1557   1.409       .  A
C1556      H1561   1.083       .  S
C1557      C1558   1.411       .  A
C1558      O1562   1.371       .  S
C1559      C1564   1.407       .  A
C1559      C1568   1.406       .  A
O1560      H1576   0.992       .  S
O1562      H1573   0.992       .  S
C1564      C1565   1.395       .  A
C1564      O1569   1.372       .  S
C1565      C1566   1.406       .  A
C1565      H1570   1.084       .  S
C1566      C1567   1.412       .  A
C1567      C1568   1.403       .  A
C1567      O1571   1.372       .  S
C1568      H1572   1.083       .  S
O1569      H1574   0.992       .  S
O1571      H1575   0.992       .  S
C1577      C1578   1.405       .  A
C1577      C1582   1.401       .  A
C1577      H1587   1.084       .  S
C1578      C1583   1.499       .  S
C1578      C1579   1.411       .  A
C1579      C1580   1.411       .  A
C1579      O1584   1.372       .  S
C1580      C1581   1.410       .  A
C1580      H1585   1.083       .  S
C1581      C1582   1.415       .  A
C1582      O1586   1.372       .  S
C1583      C1588   1.416       .  A
C1583      C1592   1.402       .  A
O1584      H1600   0.992       .  S
O1586      H1597   0.992   1_556  S
C1588      C1589   1.412       .  A
C1588      O1593   1.371       .  S
C1589      C1590   1.406       .  A
C1589      H1594   1.083       .  S
C1590      C1591   1.414       .  A
C1591      C1592   1.399       .  A
C1591      O1595   1.373       .  S
C1592      H1596   1.084       .  S
O1593      H1598   0.992       .  S
O1595      H1599   0.992       .  S
C1601      C1602   1.407       .  A
C1601      C1606   1.407       .  A
C1601      H1611   1.083       .  S
C1602      C1607   1.484       .  S
C1602      C1603   1.404       .  A
C1603      C1604   1.401       .  A
C1603      O1608   1.372       .  S
C1604      C1605   1.405       .  A
C1604      H1609   1.084       .  S
C1605      C1606   1.407       .  A
C1606      O1610   1.371       .  S
C1607      C1612   1.410       .  A
C1607      C1616   1.402       .  A
O1608      H1624   0.992       .  S
O1610      H1621   0.992       .  S
C1612      C1613   1.403       .  A
C1612      O1617   1.372       .  S
C1613      C1614   1.403       .  A
C1613      H1618   1.084       .  S
C1614      C1615   1.409       .  A
C1615      C1616   1.404       .  A
C1615      O1619   1.371       .  S
C1616      H1620   1.083       .  S
O1617      H1622   0.992       .  S
O1619      H1623   0.992       .  S
C1625      C1626   1.404       .  A
C1625      C1630   1.398       .  A
C1625      H1635   1.084       .  S
C1626      C1631   1.481       .  S
C1626      C1627   1.407       .  A
C1627      C1628   1.404       .  A
C1627      O1632   1.372       .  S
C1628      C1629   1.405       .  A
C1628      H1633   1.084       .  S
C1629      C1630   1.405       .  A
C1630      O1634   1.372       .  S
C1631      C1636   1.409       .  A
C1631      C1640   1.403       .  A
O1632      H1648   0.992       .  S
O1634      H1645   0.992       .  S
C1636      C1637   1.399       .  A
C1636      O1641   1.373       .  S
C1637      C1638   1.401       .  A
C1637      H1642   1.084       .  S
C1638      C1639   1.409       .  A
C1639      C1640   1.404       .  A
C1639      O1643   1.372       .  S
C1640      H1644   1.083       .  S
O1641      H1646   0.992       .  S
O1643      H1647   0.992       .  S
C1649      C1650   1.401       .  A
C1649      C1654   1.397       .  A
C1649      H1659   1.084       .  S
C1650      C1655   1.486       .  S
C1650      C1651   1.410       .  A
C1651      C1652   1.403       .  A
C1651      O1656   1.373       .  S
C1652      C1653   1.407       .  A
C1652      H1657   1.083       .  S
C1653      C1654   1.415       .  A
C1654      O1658   1.372       .  S
C1655      C1660   1.407       .  A
C1655      C1664   1.407       .  A
O1656      H1672   0.992       .  S
O1658      H1669   0.992       .  S
C1660      C1661   1.396       .  A
C1660      O1665   1.371       .  S
C1661      C1662   1.407       .  A
C1661      H1666   1.083       .  S
C1662      C1663   1.410       .  A
C1663      C1664   1.402       .  A
C1663      O1667   1.371       .  S
C1664      H1668   1.084       .  S
O1665      H1670   0.992       .  S
O1667      H1671   0.992       .  S
C1673      C1674   1.402       .  A
C1673      C1678   1.400       .  A
C1673      H1683   1.084       .  S
C1674      C1679   1.474       .  S
C1674      C1675   1.404       .  A
C1675      C1676   1.397       .  A
C1675      O1680   1.372       .  S
C1676      C1677   1.406       .  A
C1676      H1681   1.084       .  S
C1677      C1678   1.412       .  A
C1678      O1682   1.372       .  S
C1679      C1684   1.407       .  A
C1679      C1688   1.396       .  A
O1680      H1696   0.992       .  S
O1682      H1693   0.992       .  S
C1684      C1685   1.402   1_554  A
C1684      O1689   1.371       .  S
C1685      C1686   1.406       .  A
C1685      H1690   1.083       .  S
C1686      C1687   1.417       .  A
C1687      C1688   1.395   1_556  A
C1687      O1691   1.372       .  S
C1688      H1692   1.084       .  S
O1689      H1694   0.992       .  S
O1691      H1695   0.992       .  S
C1697      C1698   1.405       .  A
C1697      C1702   1.407       .  A
C1697      H1707   1.083       .  S
C1698      C1703   1.487       .  S
C1698      C1699   1.411       .  A
C1699      C1700   1.397       .  A
C1699      O1704   1.372       .  S
C1700      C1701   1.400       .  A
C1700      H1705   1.084       .  S
C1701      C1702   1.410       .  A
C1702      O1706   1.372       .  S
C1703      C1708   1.408       .  A
C1703      C1712   1.405       .  A
O1704      H1720   0.992       .  S
O1706      H1717   0.992       .  S
C1708      C1709   1.406       .  A
C1708      O1713   1.371       .  S
C1709      C1710   1.406       .  A
C1709      H1714   1.084       .  S
C1710      C1711   1.404       .  A
C1711      C1712   1.398       .  A
C1711      O1715   1.372       .  S
C1712      H1716   1.084       .  S
O1713      H1718   0.992       .  S
O1715      H1719   0.992       .  S
C1721      C1722   1.405       .  A
C1721      C1726   1.406       .  A
C1721      H1731   1.083       .  S
C1722      C1727   1.488       .  S
C1722      C1723   1.408       .  A
C1723      C1724   1.397       .  A
C1723      O1728   1.372       .  S
C1724      C1725   1.407       .  A
C1724      H1729   1.083       .  S
C1725      C1726   1.414       .  A
C1726      O1730   1.371       .  S
C1727      C1732   1.408       .  A
C1727      C1736   1.403       .  A
O1728      H1744   0.992       .  S
O1730      H1741   0.992       .  S
C1732      C1733   1.405       .  A
C1732      O1737   1.371       .  S
C1733      C1734   1.408       .  A
C1733      H1738   1.083       .  S
C1734      C1735   1.413       .  A
C1735      C1736   1.401       .  A
C1735      O1739   1.372       .  S
C1736      H1740   1.084       .  S
O1737      H1742   0.992       .  S
O1739      H1743   0.992       .  S
C1745      C1746   1.401       .  A
C1745      C1750   1.398       .  A
C1745      H1755   1.084       .  S
C1746      C1751   1.487       .  S
C1746      C1747   1.409       .  A
C1747      C1748   1.407       .  A
C1747      O1752   1.372       .  S
C1748      C1749   1.408       .  A
C1748      H1753   1.083       .  S
C1749      C1750   1.415       .  A
C1750      O1754   1.372       .  S
C1751      C1756   1.410       .  A
C1751      C1760   1.403       .  A
O1752      H1768   0.992       .  S
O1754      H1765   0.992       .  S
C1756      C1757   1.404       .  A
C1756      O1761   1.371       .  S
C1757      C1758   1.407       .  A
C1757      H1762   1.084       .  S
C1758      C1759   1.414       .  A
C1759      C1760   1.400       .  A
C1759      O1763   1.372       .  S
C1760      H1764   1.084       .  S
O1761      H1766   0.992       .  S
O1763      H1767   0.992       .  S
C1769      C1770   1.409       .  A
C1769      C1774   1.412       .  A
C1769      H1779   1.083       .  S
C1770      C1775   1.495       .  S
C1770      C1771   1.407       .  A
C1771      C1772   1.400       .  A
C1771      O1776   1.374       .  S
C1772      C1773   1.410       .  A
C1772      H1777   1.083       .  S
C1773      C1774   1.412       .  A
C1774      O1778   1.371       .  S
C1775      C1780   1.409       .  A
C1775      C1784   1.406       .  A
O1776      H1792   0.992       .  S
O1778      H1789   0.992       .  S
C1780      C1781   1.399       .  A
C1780      O1785   1.372       .  S
C1781      C1782   1.410       .  A
C1781      H1786   1.083       .  S
C1782      C1783   1.416       .  A
C1783      C1784   1.410       .  A
C1783      O1787   1.371       .  S
C1784      H1788   1.083       .  S
O1785      H1790   0.992       .  S
O1787      H1791   0.992       .  S
C1793      C1794   1.405       .  A
C1793      C1798   1.407       .  A
C1793      H1803   1.083       .  S
C1794      C1799   1.493       .  S
C1794      C1795   1.414       .  A
C1795      C1796   1.399       .  A
C1795      O1800   1.372       .  S
C1796      C1797   1.399       .  A
C1796      H1801   1.084       .  S
C1797      C1798   1.411       .  A
C1798      O1802   1.371       .  S
C1799      C1804   1.411       .  A
C1799      C1808   1.403       .  A
O1800      H1816   0.992       .  S
O1802      H1813   0.992       .  S
C1804      C1805   1.412       .  A
C1804      O1809   1.371       .  S
C1805      C1806   1.408       .  A
C1805      H1810   1.083       .  S
C1806      C1807   1.409       .  A
C1807      C1808   1.395       .  A
C1807      O1811   1.372       .  S
C1808      H1812   1.084       .  S
O1809      H1814   0.992       .  S
O1811      H1815   0.992   1_554  S
C1817      C1818   1.402       .  A
C1817      C1822   1.401       .  A
C1817      H1827   1.084       .  S
C1818      C1823   1.490       .  S
C1818      C1819   1.408   1_554  A
C1819      C1820   1.406   1_556  A
C1819      O1824   1.371       .  S
C1820      C1821   1.410       .  A
C1820      H1825   1.083       .  S
C1821      C1822   1.416       .  A
C1822      O1826   1.371       .  S
C1823      C1828   1.407   1_554  A
C1823      C1832   1.404       .  A
O1824      H1840   0.992       .  S
O1826      H1837   0.992       .  S
C1828      C1829   1.402       .  A
C1828      O1833   1.372       .  S
C1829      C1830   1.409       .  A
C1829      H1834   1.083       .  S
C1830      C1831   1.416       .  A
C1831      C1832   1.406   1_556  A
C1831      O1835   1.372       .  S
C1832      H1836   1.083       .  S
O1833      H1838   0.992   1_556  S
O1835      H1839   0.992   1_556  S
C1841      C1842   1.403       .  A
C1841      C1846   1.405       .  A
C1841      H1851   1.084   1_554  S
C1842      C1847   1.486   1_554  S
C1842      C1843   1.407       .  A
C1843      C1844   1.402       .  A
C1843      O1848   1.373       .  S
C1844      C1845   1.409       .  A
C1844      H1849   1.083       .  S
C1845      C1846   1.415       .  A
C1846      O1850   1.371       .  S
C1847      C1852   1.406       .  A
C1847      C1856   1.405   1_556  A
O1848      H1864   0.992   1_554  S
O1850      H1861   0.992       .  S
C1852      C1853   1.398       .  A
C1852      O1857   1.372       .  S
C1853      C1854   1.410       .  A
C1853      H1858   1.083       .  S
C1854      C1855   1.414       .  A
C1855      C1856   1.408   1_556  A
C1855      O1859   1.371   1_556  S
C1856      H1860   1.083       .  S
O1857      H1862   0.992       .  S
O1859      H1863   0.992       .  S
C1865      C1866   1.399       .  A
C1865      C1870   1.395       .  A
C1865      H1875   1.084       .  S
C1866      C1871   1.485       .  S
C1866      C1867   1.414       .  A
C1867      C1868   1.404       .  A
C1867      O1872   1.372       .  S
C1868      C1869   1.403       .  A
C1868      H1873   1.083       .  S
C1869      C1870   1.415       .  A
C1870      O1874   1.372       .  S
C1871      C1876   1.412       .  A
C1871      C1880   1.401       .  A
O1872      H1888   0.992       .  S
O1874      H1885   0.992       .  S
C1876      C1877   1.402       .  A
C1876      O1881   1.372       .  S
C1877      C1878   1.404       .  A
C1877      H1882   1.084       .  S
C1878      C1879   1.413       .  A
C1879      C1880   1.397       .  A
C1879      O1883   1.372       .  S
C1880      H1884   1.084       .  S
O1881      H1886   0.992       .  S
O1883      H1887   0.992       .  S
C1889      C1890   1.403       .  A
C1889      C1894   1.399       .  A
C1889      H1899   1.084       .  S
C1890      C1895   1.483       .  S
C1890      C1891   1.408       .  A
C1891      C1892   1.402       .  A
C1891      O1896   1.372       .  S
C1892      C1893   1.406       .  A
C1892      H1897   1.084       .  S
C1893      C1894   1.411       .  A
C1894      O1898   1.372       .  S
C1895      C1900   1.409       .  A
C1895      C1904   1.398       .  A
O1896      H1912   0.992       .  S
O1898      H1909   0.992       .  S
C1900      C1901   1.403       .  A
C1900      O1905   1.371       .  S
C1901      C1902   1.408       .  A
C1901      H1906   1.083       .  S
C1902      C1903   1.419       .  A
C1903      C1904   1.398       .  A
C1903      O1907   1.372       .  S
C1904      H1908   1.084       .  S
O1905      H1910   0.992       .  S
O1907      H1911   0.992       .  S
C1913      C1914   1.401       .  A
C1913      C1918   1.399       .  A
C1913      H1923   1.084       .  S
C1914      C1919   1.489       .  S
C1914      C1915   1.410       .  A
C1915      C1916   1.408       .  A
C1915      O1920   1.372       .  S
C1916      C1917   1.407       .  A
C1916      H1921   1.083       .  S
C1917      C1918   1.416       .  A
C1918      O1922   1.372       .  S
C1919      C1924   1.409       .  A
C1919      C1928   1.400       .  A
O1920      H1936   0.992       .  S
O1922      H1933   0.992       .  S
C1924      C1925   1.407       .  A
C1924      O1929   1.371       .  S
C1925      C1926   1.411       .  A
C1925      H1930   1.083       .  S
C1926      C1927   1.418       .  A
C1927      C1928   1.399       .  A
C1927      O1931   1.372       .  S
C1928      H1932   1.084       .  S
O1929      H1934   0.992       .  S
O1931      H1935   0.992       .  S
C1937      C1938   1.406       .  A
C1937      C1942   1.400       .  A
C1937      H1947   1.084       .  S
C1938      C1943   1.493       .  S
C1938      C1939   1.411       .  A
C1939      C1940   1.408       .  A
C1939      O1944   1.372       .  S
C1940      C1941   1.405       .  A
C1940      H1945   1.084       .  S
C1941      C1942   1.407       .  A
C1942      O1946   1.373       .  S
C1943      C1948   1.412       .  A
C1943      C1952   1.405       .  A
O1944      H1960   0.992       .  S
O1946      H1957   0.992       .  S
C1948      C1949   1.408       .  A
C1948      O1953   1.371       .  S
C1949      C1950   1.405       .  A
C1949      H1954   1.084       .  S
C1950      C1951   1.408       .  A
C1951      C1952   1.399       .  A
C1951      O1955   1.372       .  S
C1952      H1956   1.084       .  S
O1953      H1958   0.992       .  S
O1955      H1959   0.992       .  S
C1961      C1962   1.406   1_455  A
C1961      C1966   1.401       .  A
C1961      H1971   1.084   1_455  S
C1962      C1967   1.496       .  S
C1962      C1963   1.410   1_655  A
C1963      C1964   1.407       .  A
C1963      O1968   1.372       .  S
C1964      C1965   1.408       .  A
C1964      H1969   1.083       .  S
C1965      C1966   1.412       .  A
C1966      O1970   1.372       .  S
C1967      C1972   1.413       .  A
C1967      C1976   1.404       .  A
O1968      H1984   0.992       .  S
O1970      H1981   0.992       .  S
C1972      C1973   1.406       .  A
C1972      O1977   1.371       .  S
C1973      C1974   1.407       .  A
C1973      H1978   1.083       .  S
C1974      C1975   1.415       .  A
C1975      C1976   1.400       .  A
C1975      O1979   1.372       .  S
C1976      H1980   1.084       .  S
O1977      H1982   0.992       .  S
O1979      H1983   0.992       .  S
C1985      C1986   1.406       .  A
C1985      C1990   1.406       .  A
C1985      H1995   1.083       .  S
C1986      C1991   1.485   1_565  S
C1986      C1987   1.408       .  A
C1987      C1988   1.398       .  A
C1987      O1992   1.373       .  S
C1988      C1989   1.404       .  A
C1988      H1993   1.084       .  S
C1989      C1990   1.410       .  A
C1990      O1994   1.371       .  S
C1991      C1996   1.410       .  A
C1991      C2000   1.405       .  A
O1992      H2008   0.992       .  S
O1994      H2005   0.992       .  S
C1996      C1997   1.398       .  A
C1996      O2001   1.372       .  S
C1997      C1998   1.403       .  A
C1997      H2002   1.084       .  S
C1998      C1999   1.409       .  A
C1999      C2000   1.404       .  A
C1999      O2003   1.371       .  S
C2000      H2004   1.083       .  S
O2001      H2006   0.992       .  S
O2003      H2007   0.992       .  S
C2009      C2010   1.405       .  A
C2009      C2014   1.409       .  A
C2009      H2019   1.083       .  S
C2010      C2015   1.484       .  S
C2010      C2011   1.406       .  A
C2011      C2012   1.398       .  A
C2011      O2016   1.373       .  S
C2012      C2013   1.403       .  A
C2012      H2017   1.084       .  S
C2013      C2014   1.412       .  A
C2014      O2018   1.371       .  S
C2015      C2020   1.410       .  A
C2015      C2024   1.401       .  A
O2016      H2032   0.992       .  S
O2018      H2029   0.992       .  S
C2020      C2021   1.404       .  A
C2020      O2025   1.373       .  S
C2021      C2022   1.401       .  A
C2021      H2026   1.084       .  S
C2022      C2023   1.410       .  A
C2023      C2024   1.403       .  A
C2023      O2027   1.372       .  S
C2024      H2028   1.083       .  S
O2025      H2030   0.991       .  S
O2027      H2031   0.992       .  S
C2033      C2034   1.405   1_455  A
C2033      C2038   1.408       .  A
C2033      H2043   1.083       .  S
C2034      C2039   1.490       .  S
C2034      C2035   1.407   1_655  A
C2035      C2036   1.402       .  A
C2035      O2040   1.373   1_455  S
C2036      C2037   1.410       .  A
C2036      H2041   1.083       .  S
C2037      C2038   1.415       .  A
C2038      O2042   1.371       .  S
C2039      C2044   1.407       .  A
C2039      C2048   1.406       .  A
O2040      H2056   0.992       .  S
O2042      H2053   0.992       .  S
C2044      C2045   1.403       .  A
C2044      O2049   1.373       .  S
C2045      C2046   1.409       .  A
C2045      H2050   1.084       .  S
C2046      C2047   1.411       .  A
C2047      C2048   1.408       .  A
C2047      O2051   1.371       .  S
C2048      H2052   1.083       .  S
O2049      H2054   0.992       .  S
O2051      H2055   0.991       .  S
C2057      C2058   1.403       .  A
C2057      C2062   1.406       .  A
C2057      H2067   1.083       .  S
C2058      C2063   1.481   1_565  S
C2058      C2059   1.403       .  A
C2059      C2060   1.399       .  A
C2059      O2064   1.372       .  S
C2060      C2061   1.412       .  A
C2060      H2065   1.083       .  S
C2061      C2062   1.415       .  A
C2062      O2066   1.371       .  S
C2063      C2068   1.405       .  A
C2063      C2072   1.401       .  A
O2064      H2080   0.992       .  S
O2066      H2077   0.992       .  S
C2068      C2069   1.404       .  A
C2068      O2073   1.371       .  S
C2069      C2070   1.410       .  A
C2069      H2074   1.083       .  S
C2070      C2071   1.413       .  A
C2071      C2072   1.400       .  A
C2071      O2075   1.372       .  S
C2072      H2076   1.084   1_545  S
O2073      H2078   0.992       .  S
O2075      H2079   0.992       .  S
C2081      C2082   1.401       .  A
C2081      C2086   1.398       .  A
C2081      H2091   1.084       .  S
C2082      C2087   1.478       .  S
C2082      C2083   1.408       .  A
C2083      C2084   1.402       .  A
C2083      O2088   1.372       .  S
C2084      C2085   1.404       .  A
C2084      H2089   1.084       .  S
C2085      C2086   1.411       .  A
C2086      O2090   1.372       .  S
C2087      C2092   1.403       .  A
C2087      C2096   1.406       .  A
O2088      H2104   0.992       .  S
O2090      H2101   0.992       .  S
C2092      C2093   1.395   1_556  A
C2092      O2097   1.372       .  S
C2093      C2094   1.407       .  A
C2093      H2098   1.084       .  S
C2094      C2095   1.409       .  A
C2095      C2096   1.405   1_554  A
C2095      O2099   1.371       .  S
C2096      H2100   1.084       .  S
O2097      H2102   0.992       .  S
O2099      H2103   0.992       .  S
C2105      C2106   1.400       .  A
C2105      C2110   1.398       .  A
C2105      H2115   1.084       .  S
C2106      C2111   1.490       .  S
C2106      C2107   1.411       .  A
C2107      C2108   1.405       .  A
C2107      O2112   1.371       .  S
C2108      C2109   1.408       .  A
C2108      H2113   1.083       .  S
C2109      C2110   1.419       .  A
C2110      O2114   1.372       .  S
C2111      C2116   1.412       .  A
C2111      C2120   1.404       .  A
O2112      H2128   0.992       .  S
O2114      H2125   0.992       .  S
C2116      C2117   1.402       .  A
C2116      O2121   1.372       .  S
C2117      C2118   1.403       .  A
C2117      H2122   1.084       .  S
C2118      C2119   1.411       .  A
C2119      C2120   1.401       .  A
C2119      O2123   1.372       .  S
C2120      H2124   1.083       .  S
O2121      H2126   0.992       .  S
O2123      H2127   0.992       .  S
C2129      C2130   1.407       .  A
C2129      C2134   1.411       .  A
C2129      H2139   1.083       .  S
C2130      C2135   1.490       .  S
C2130      C2131   1.408       .  A
C2131      C2132   1.399       .  A
C2131      O2136   1.373       .  S
C2132      C2133   1.403       .  A
C2132      H2137   1.084       .  S
C2133      C2134   1.411       .  A
C2134      O2138   1.371       .  S
C2135      C2140   1.412       .  A
C2135      C2144   1.404       .  A
O2136      H2152   0.992       .  S
O2138      H2149   0.992       .  S
C2140      C2141   1.401       .  A
C2140      O2145   1.371       .  S
C2141      C2142   1.400       .  A
C2141      H2146   1.084   1_556  S
C2142      C2143   1.411       .  A
C2143      C2144   1.406       .  A
C2143      O2147   1.371       .  S
C2144      H2148   1.083       .  S
O2145      H2150   0.992   1_556  S
O2147      H2151   0.992       .  S
C2153      C2154   1.400   1_455  A
C2153      C2158   1.405       .  A
C2153      H2163   1.084       .  S
C2154      C2159   1.481       .  S
C2154      C2155   1.405       .  A
C2155      C2156   1.401   1_655  A
C2155      O2160   1.372       .  S
C2156      C2157   1.407       .  A
C2156      H2161   1.083       .  S
C2157      C2158   1.418       .  A
C2158      O2162   1.372       .  S
C2159      C2164   1.404       .  A
C2159      C2168   1.402       .  A
O2160      H2176   0.992       .  S
O2162      H2173   0.992       .  S
C2164      C2165   1.399       .  A
C2164      O2169   1.372       .  S
C2165      C2166   1.408       .  A
C2165      H2170   1.083       .  S
C2166      C2167   1.415       .  A
C2167      C2168   1.405       .  A
C2167      O2171   1.371       .  S
C2168      H2172   1.083       .  S
O2169      H2174   0.992       .  S
O2171      H2175   0.992       .  S
C2177      C2178   1.403       .  A
C2177      C2182   1.402       .  A
C2177      H2187   1.084       .  S
C2178      C2183   1.498       .  S
C2178      C2179   1.410       .  A
C2179      C2180   1.410       .  A
C2179      O2184   1.371       .  S
C2180      C2181   1.412       .  A
C2180      H2185   1.083   1_554  S
C2181      C2182   1.418       .  A
C2182      O2186   1.372       .  S
C2183      C2188   1.407       .  A
C2183      C2192   1.410       .  A
O2184      H2200   0.992       .  S
O2186      H2197   0.992       .  S
C2188      C2189   1.400       .  A
C2188      O2193   1.373       .  S
C2189      C2190   1.410       .  A
C2189      H2194   1.084       .  S
C2190      C2191   1.413       .  A
C2191      C2192   1.414       .  A
C2191      O2195   1.371       .  S
C2192      H2196   1.083       .  S
O2193      H2198   0.992       .  S
O2195      H2199   0.992       .  S
C2201      C2202   1.403       .  A
C2201      C2206   1.397       .  A
C2201      H2211   1.084       .  S
C2202      C2207   1.491       .  S
C2202      C2203   1.411       .  A
C2203      C2204   1.410       .  A
C2203      O2208   1.371       .  S
C2204      C2205   1.405       .  A
C2204      H2209   1.083       .  S
C2205      C2206   1.410       .  A
C2206      O2210   1.374       .  S
C2207      C2212   1.409       .  A
C2207      C2216   1.408       .  A
O2208      H2224   0.992       .  S
O2210      H2221   0.992       .  S
C2212      C2213   1.405       .  A
C2212      O2217   1.371       .  S
C2213      C2214   1.405       .  A
C2213      H2218   1.084       .  S
C2214      C2215   1.404       .  A
C2215      C2216   1.399       .  A
C2215      O2219   1.372       .  S
C2216      H2220   1.084       .  S
O2217      H2222   0.992       .  S
O2219      H2223   0.992       .  S
C2225      C2226   1.404       .  A
C2225      C2230   1.407       .  A
C2225      H2235   1.083       .  S
C2226      C2231   1.487       .  S
C2226      C2227   1.406       .  A
C2227      C2228   1.400       .  A
C2227      O2232   1.373       .  S
C2228      C2229   1.408       .  A
C2228      H2233   1.083       .  S
C2229      C2230   1.416       .  A
C2230      O2234   1.371       .  S
C2231      C2236   1.407       .  A
C2231      C2240   1.403   1_655  A
O2232      H2248   0.992       .  S
O2234      H2245   0.992       .  S
C2236      C2237   1.399   1_655  A
C2236      O2241   1.372       .  S
C2237      C2238   1.408       .  A
C2237      H2242   1.083       .  S
C2238      C2239   1.417       .  A
C2239      C2240   1.407       .  A
C2239      O2243   1.371       .  S
C2240      H2244   1.083       .  S
O2241      H2246   0.992       .  S
O2243      H2247   0.992       .  S
C2249      C2250   1.405       .  A
C2249      C2254   1.404       .  A
C2249      H2259   1.083       .  S
C2250      C2255   1.476       .  S
C2250      C2251   1.402       .  A
C2251      C2252   1.393       .  A
C2251      O2256   1.372       .  S
C2252      C2253   1.408       .  A
C2252      H2257   1.083       .  S
C2253      C2254   1.412       .  A
C2254      O2258   1.371       .  S
C2255      C2260   1.404       .  A
C2255      C2264   1.403       .  A
O2256      H2272   0.992       .  S
O2258      H2269   0.992       .  S
C2260      C2261   1.398       .  A
C2260      O2265   1.372       .  S
C2261      C2262   1.407       .  A
C2261      H2266   1.083       .  S
C2262      C2263   1.412       .  A
C2263      C2264   1.399       .  A
C2263      O2267   1.372       .  S
C2264      H2268   1.084       .  S
O2265      H2270   0.992       .  S
O2267      H2271   0.992       .  S
C2273      C2274   1.402       .  A
C2273      C2278   1.398       .  A
C2273      H2283   1.083       .  S
C2274      C2279   1.482       .  S
C2274      C2275   1.410       .  A
C2275      C2276   1.400       .  A
C2275      O2280   1.372       .  S
C2276      C2277   1.405       .  A
C2276      H2281   1.084       .  S
C2277      C2278   1.412       .  A
C2278      O2282   1.372       .  S
C2279      C2284   1.409       .  A
C2279      C2288   1.397       .  A
O2280      H2296   0.992       .  S
O2282      H2293   0.992       .  S
C2284      C2285   1.404       .  A
C2284      O2289   1.372       .  S
C2285      C2286   1.407       .  A
C2285      H2290   1.083       .  S
C2286      C2287   1.419       .  A
C2287      C2288   1.395       .  A
C2287      O2291   1.372       .  S
C2288      H2292   1.084       .  S
O2289      H2294   0.992       .  S
O2291      H2295   0.992       .  S
C2297      C2298   1.410       .  A
C2297      C2302   1.412       .  A
C2297      H2307   1.083       .  S
C2298      C2303   1.495       .  S
C2298      C2299   1.408       .  A
C2299      C2300   1.395       .  A
C2299      O2304   1.372       .  S
C2300      C2301   1.408       .  A
C2300      H2305   1.083       .  S
C2301      C2302   1.413       .  A
C2302      O2306   1.371       .  S
C2303      C2308   1.410       .  A
C2303      C2312   1.403       .  A
O2304      H2320   0.992       .  S
O2306      H2317   0.992       .  S
C2308      C2309   1.408       .  A
C2308      O2313   1.371       .  S
C2309      C2310   1.411       .  A
C2309      H2314   1.083       .  S
C2310      C2311   1.417       .  A
C2311      C2312   1.399       .  A
C2311      O2315   1.372       .  S
C2312      H2316   1.084       .  S
O2313      H2318   0.992       .  S
O2315      H2319   0.992       .  S
C2321      C2322   1.409       .  A
C2321      C2326   1.412       .  A
C2321      H2331   1.083       .  S
C2322      C2327   1.496       .  S
C2322      C2323   1.411       .  A
C2323      C2324   1.396       .  A
C2323      O2328   1.372       .  S
C2324      C2325   1.403       .  A
C2324      H2329   1.084       .  S
C2325      C2326   1.411       .  A
C2326      O2330   1.371       .  S
C2327      C2332   1.411       .  A
C2327      C2336   1.407       .  A
O2328      H2344   0.992       .  S
O2330      H2341   0.992       .  S
C2332      C2333   1.409       .  A
C2332      O2337   1.371       .  S
C2333      C2334   1.406       .  A
C2333      H2338   1.084       .  S
C2334      C2335   1.405       .  A
C2335      C2336   1.398       .  A
C2335      O2339   1.372       .  S
C2336      H2340   1.084       .  S
O2337      H2342   0.992       .  S
O2339      H2343   0.992       .  S
C2345      C2346   1.405       .  A
C2345      C2350   1.407       .  A
C2345      H2355   1.083       .  S
C2346      C2351   1.487       .  S
C2346      C2347   1.407       .  A
C2347      C2348   1.397       .  A
C2347      O2352   1.372       .  S
C2348      C2349   1.407       .  A
C2348      H2353   1.083       .  S
C2349      C2350   1.415       .  A
C2350      O2354   1.371       .  S
C2351      C2356   1.409       .  A
C2351      C2360   1.402       .  A
O2352      H2368   0.992       .  S
O2354      H2365   0.992       .  S
C2356      C2357   1.406       .  A
C2356      O2361   1.372       .  S
C2357      C2358   1.409       .  A
C2357      H2362   1.083       .  S
C2358      C2359   1.413       .  A
C2359      C2360   1.398       .  A
C2359      O2363   1.371       .  S
C2360      H2364   1.084       .  S
O2361      H2366   0.992       .  S
O2363      H2367   0.992       .  S
C2369      C2370   1.403       .  A
C2369      C2374   1.400       .  A
C2369      H2379   1.083       .  S
C2370      C2375   1.480       .  S
C2370      C2371   1.410       .  A
C2371      C2372   1.396       .  A
C2371      O2376   1.371       .  S
C2372      C2373   1.398       .  A
C2372      H2377   1.084       .  S
C2373      C2374   1.408       .  A
C2374      O2378   1.372       .  S
C2375      C2380   1.408       .  A
C2375      C2384   1.404       .  A
O2376      H2392   0.992       .  S
O2378      H2389   0.991       .  S
C2380      C2381   1.402       .  A
C2380      O2385   1.372       .  S
C2381      C2382   1.403       .  A
C2381      H2386   1.084       .  S
C2382      C2383   1.405       .  A
C2383      C2384   1.397       .  A
C2383      O2387   1.372       .  S
C2384      H2388   1.084       .  S
O2385      H2390   0.992       .  S
O2387      H2391   0.992       .  S
C2393      C2394   1.398       .  A
C2393      C2398   1.394       .  A
C2393      H2403   1.084       .  S
C2394      C2399   1.471       .  S
C2394      C2395   1.405       .  A
C2395      C2396   1.401       .  A
C2395      O2400   1.372       .  S
C2396      C2397   1.407       .  A
C2396      H2401   1.084       .  S
C2397      C2398   1.413       .  A
C2398      O2402   1.372       .  S
C2399      C2404   1.404       .  A
C2399      C2408   1.399       .  A
O2400      H2416   0.992       .  S
O2402      H2413   0.992       .  S
C2404      C2405   1.394       .  A
C2404      O2409   1.372       .  S
C2405      C2406   1.405       .  A
C2405      H2410   1.083       .  S
C2406      C2407   1.416       .  A
C2407      C2408   1.402       .  A
C2407      O2411   1.372       .  S
C2408      H2412   1.084       .  S
O2409      H2414   0.992       .  S
O2411      H2415   0.992       .  S
C2417      C2418   1.397       .  A
C2417      C2422   1.395       .  A
C2417      H2427   1.084       .  S
C2418      C2423   1.481       .  S
C2418      C2419   1.411       .  A
C2419      C2420   1.404       .  A
C2419      O2424   1.371       .  S
C2420      C2421   1.404       .  A
C2420      H2425   1.083       .  S
C2421      C2422   1.418       .  A
C2422      O2426   1.373       .  S
C2423      C2428   1.411       .  A
C2423      C2432   1.400       .  A
O2424      H2440   0.992       .  S
O2426      H2437   0.992       .  S
C2428      C2429   1.402       .  A
C2428      O2433   1.372       .  S
C2429      C2430   1.404       .  A
C2429      H2434   1.084       .  S
C2430      C2431   1.411       .  A
C2431      C2432   1.397       .  A
C2431      O2435   1.371       .  S
C2432      H2436   1.084       .  S
O2433      H2438   0.992       .  S
O2435      H2439   0.992       .  S
C2441      C2442   1.405       .  A
C2441      C2446   1.402       .  A
C2441      H2451   1.083       .  S
C2442      C2447   1.480       .  S
C2442      C2443   1.406       .  A
C2443      C2444   1.395       .  A
C2443      O2448   1.372       .  S
C2444      C2445   1.406       .  A
C2444      H2449   1.084       .  S
C2445      C2446   1.410       .  A
C2446      O2450   1.372       .  S
C2447      C2452   1.406       .  A
C2447      C2456   1.403       .  A
O2448      H2464   0.992       .  S
O2450      H2461   0.992       .  S
C2452      C2453   1.399   1_554  A
C2452      O2457   1.372       .  S
C2453      C2454   1.408       .  A
C2453      H2458   1.083       .  S
C2454      C2455   1.413       .  A
C2455      C2456   1.399   1_556  A
C2455      O2459   1.372       .  S
C2456      H2460   1.084       .  S
O2457      H2462   0.992       .  S
O2459      H2463   0.992       .  S
C2465      C2466   1.404       .  A
C2465      C2470   1.405       .  A
C2465      H2475   1.083       .  S
C2466      C2471   1.479       .  S
C2466      C2467   1.407       .  A
C2467      C2468   1.395       .  A
C2467      O2472   1.372       .  S
C2468      C2469   1.403       .  A
C2468      H2473   1.084       .  S
C2469      C2470   1.409       .  A
C2470      O2474   1.372       .  S
C2471      C2476   1.405       .  A
C2471      C2480   1.405       .  A
O2472      H2488   0.992       .  S
O2474      H2485   0.992       .  S
C2476      C2477   1.401       .  A
C2476      O2481   1.371       .  S
C2477      C2478   1.404       .  A
C2477      H2482   1.084       .  S
C2478      C2479   1.404       .  A
C2479      C2480   1.398       .  A
C2479      O2483   1.372       .  S
C2480      H2484   1.084       .  S
O2481      H2486   0.991       .  S
O2483      H2487   0.992       .  S
C2489      C2490   1.402       .  A
C2489      C2494   1.402       .  A
C2489      H2499   1.084       .  S
C2490      C2495   1.476       .  S
C2490      C2491   1.405       .  A
C2491      C2492   1.397       .  A
C2491      O2496   1.373       .  S
C2492      C2493   1.405       .  A
C2492      H2497   1.084       .  S
C2493      C2494   1.412       .  A
C2494      O2498   1.372       .  S
C2495      C2500   1.405       .  A
C2495      C2504   1.401       .  A
O2496      H2512   0.992       .  S
O2498      H2509   0.992       .  S
C2500      C2501   1.394       .  A
C2500      O2505   1.372       .  S
C2501      C2502   1.406       .  A
C2501      H2506   1.083       .  S
C2502      C2503   1.416       .  A
C2503      C2504   1.404       .  A
C2503      O2507   1.372       .  S
C2504      H2508   1.084       .  S
O2505      H2510   0.992       .  S
O2507      H2511   0.992       .  S
C2513      C2514   1.404       .  A
C2513      C2518   1.404       .  A
C2513      H2523   1.083       .  S
C2514      C2519   1.483       .  S
C2514      C2515   1.406       .  A
C2515      C2516   1.395       .  A
C2515      O2520   1.372       .  S
C2516      C2517   1.408       .  A
C2516      H2521   1.083       .  S
C2517      C2518   1.415       .  A
C2518      O2522   1.372       .  S
C2519      C2524   1.407       .  A
C2519      C2528   1.402       .  A
O2520      H2536   0.992       .  S
O2522      H2533   0.992       .  S
C2524      C2525   1.403       .  A
C2524      O2529   1.372       .  S
C2525      C2526   1.409       .  A
C2525      H2530   1.083       .  S
C2526      C2527   1.414       .  A
C2527      C2528   1.397       .  A
C2527      O2531   1.372       .  S
C2528      H2532   1.084       .  S
O2529      H2534   0.992       .  S
O2531      H2535   0.992       .  S
C2537      C2538   1.398       .  A
C2537      C2542   1.395       .  A
C2537      H2547   1.084       .  S
C2538      C2543   1.491       .  S
C2538      C2539   1.413       .  A
C2539      C2540   1.412       .  A
C2539      O2544   1.372       .  S
C2540      C2541   1.407       .  A
C2540      H2545   1.083       .  S
C2541      C2542   1.417       .  A
C2542      O2546   1.373       .  S
C2543      C2548   1.409       .  A
C2543      C2552   1.403       .  A
O2544      H2560   0.992       .  S
O2546      H2557   0.992       .  S
C2548      C2549   1.407       .  A
C2548      O2553   1.371       .  S
C2549      C2550   1.410       .  A
C2549      H2554   1.083       .  S
C2550      C2551   1.418       .  A
C2551      C2552   1.399       .  A
C2551      O2555   1.372       .  S
C2552      H2556   1.084       .  S
O2553      H2558   0.992       .  S
O2555      H2559   0.992       .  S
C2561      C2562   1.407       .  A
C2561      C2566   1.408       .  A
C2561      H2571   1.083       .  S
C2562      C2567   1.497       .  S
C2562      C2563   1.413       .  A
C2563      C2564   1.400       .  A
C2563      O2568   1.372       .  S
C2564      C2565   1.402       .  A
C2564      H2569   1.084       .  S
C2565      C2566   1.409       .  A
C2566      O2570   1.371       .  S
C2567      C2572   1.412       .  A
C2567      C2576   1.406       .  A
O2568      H2584   0.992       .  S
O2570      H2581   0.992       .  S
C2572      C2573   1.409       .  A
C2572      O2577   1.371       .  S
C2573      C2574   1.406       .  A
C2573      H2578   1.084       .  S
C2574      C2575   1.408       .  A
C2575      C2576   1.399       .  A
C2575      O2579   1.372       .  S
C2576      H2580   1.084       .  S
O2577      H2582   0.992       .  S
O2579      H2583   0.992       .  S
C2585      C2586   1.400   1_556  A
C2585      C2590   1.398       .  A
C2585      H2595   1.084       .  S
C2586      C2591   1.481       .  S
C2586      C2587   1.406       .  A
C2587      C2588   1.405       .  A
C2587      O2592   1.371       .  S
C2588      C2589   1.409   1_554  A
C2588      H2593   1.083       .  S
C2589      C2590   1.416       .  A
C2590      O2594   1.372       .  S
C2591      C2596   1.408       .  A
C2591      C2600   1.400       .  A
O2592      H2608   0.992       .  S
O2594      H2605   0.992       .  S
C2596      C2597   1.405       .  A
C2596      O2601   1.371       .  S
C2597      C2598   1.407       .  A
C2597      H2602   1.083       .  S
C2598      C2599   1.416       .  A
C2599      C2600   1.397       .  A
C2599      O2603   1.372       .  S
C2600      H2604   1.084       .  S
O2601      H2606   0.992   1_554  S
O2603      H2607   0.992       .  S
C2609      C2610   1.406       .  A
C2609      C2614   1.402       .  A
C2609      H2619   1.083       .  S
C2610      C2615   1.501       .  S
C2610      C2611   1.414       .  A
C2611      C2612   1.406       .  A
C2611      O2616   1.371   1_556  S
C2612      C2613   1.405       .  A
C2612      H2617   1.083       .  S
C2613      C2614   1.415       .  A
C2614      O2618   1.372       .  S
C2615      C2620   1.412   1_556  A
C2615      C2624   1.408       .  A
O2616      H2632   0.992       .  S
O2618      H2629   0.992       .  S
C2620      C2621   1.402       .  A
C2620      O2625   1.372       .  S
C2621      C2622   1.407       .  A
C2621      H2626   1.083       .  S
C2622      C2623   1.415   1_554  A
C2623      C2624   1.409       .  A
C2623      O2627   1.371       .  S
C2624      H2628   1.083       .  S
O2625      H2630   0.992       .  S
O2627      H2631   0.992       .  S
C2633      C2634   1.405       .  A
C2633      C2638   1.399       .  A
C2633      H2643   1.084       .  S
C2634      C2639   1.485       .  S
C2634      C2635   1.408       .  A
C2635      C2636   1.402       .  A
C2635      O2640   1.373       .  S
C2636      C2637   1.405       .  A
C2636      H2641   1.084       .  S
C2637      C2638   1.410       .  A
C2638      O2642   1.372       .  S
C2639      C2644   1.410       .  A
C2639      C2648   1.400       .  A
O2640      H2656   0.992       .  S
O2642      H2653   0.992       .  S
C2644      C2645   1.401       .  A
C2644      O2649   1.371       .  S
C2645      C2646   1.407       .  A
C2645      H2650   1.083       .  S
C2646      C2647   1.418       .  A
C2647      C2648   1.397       .  A
C2647      O2651   1.372       .  S
C2648      H2652   1.084       .  S
O2649      H2654   0.992       .  S
O2651      H2655   0.992       .  S
C2657      C2658   1.403       .  A
C2657      C2662   1.400       .  A
C2657      H2667   1.083       .  S
C2658      C2663   1.485       .  S
C2658      C2659   1.409       .  A
C2659      C2660   1.402       .  A
C2659      O2664   1.371       .  S
C2660      C2661   1.405       .  A
C2660      H2665   1.084       .  S
C2661      C2662   1.413       .  A
C2662      O2666   1.372       .  S
C2663      C2668   1.409       .  A
C2663      C2672   1.402       .  A
O2664      H2680   0.992       .  S
O2666      H2677   0.992       .  S
C2668      C2669   1.403       .  A
C2668      O2673   1.372       .  S
C2669      C2670   1.405       .  A
C2669      H2674   1.083       .  S
C2670      C2671   1.414       .  A
C2671      C2672   1.401       .  A
C2671      O2675   1.372       .  S
C2672      H2676   1.084       .  S
O2673      H2678   0.992       .  S
O2675      H2679   0.992       .  S
C2681      C2682   1.408       .  A
C2681      C2686   1.404       .  A
C2681      H2691   1.083       .  S
C2682      C2687   1.498       .  S
C2682      C2683   1.411       .  A
C2683      C2684   1.403       .  A
C2683      O2688   1.372       .  S
C2684      C2685   1.409       .  A
C2684      H2689   1.084       .  S
C2685      C2686   1.412       .  A
C2686      O2690   1.371       .  S
C2687      C2692   1.412       .  A
C2687      C2696   1.405       .  A
O2688      H2704   0.992       .  S
O2690      H2701   0.992       .  S
C2692      C2693   1.405       .  A
C2692      O2697   1.373       .  S
C2693      C2694   1.406       .  A
C2693      H2698   1.084       .  S
C2694      C2695   1.415       .  A
C2695      C2696   1.404       .  A
C2695      O2699   1.372       .  S
C2696      H2700   1.083       .  S
O2697      H2702   0.992       .  S
O2699      H2703   0.992       .  S
C2705      C2706   1.406       .  A
C2705      C2710   1.411       .  A
C2705      H2715   1.083       .  S
C2706      C2711   1.486       .  S
C2706      C2707   1.407       .  A
C2707      C2708   1.397       .  A
C2707      O2712   1.372       .  S
C2708      C2709   1.404       .  A
C2708      H2713   1.084       .  S
C2709      C2710   1.412       .  A
C2710      O2714   1.371       .  S
C2711      C2716   1.412       .  A
C2711      C2720   1.400       .  A
O2712      H2728   0.992       .  S
O2714      H2725   0.992       .  S
C2716      C2717   1.410       .  A
C2716      O2721   1.371       .  S
C2717      C2718   1.403       .  A
C2717      H2722   1.083       .  S
C2718      C2719   1.412       .  A
C2719      C2720   1.398       .  A
C2719      O2723   1.372       .  S
C2720      H2724   1.084       .  S
O2721      H2726   0.992       .  S
O2723      H2727   0.992       .  S
C2729      C2730   1.400       .  A
C2729      C2734   1.399   1_545  A
C2729      H2739   1.084       .  S
C2730      C2735   1.487       .  S
C2730      C2731   1.408   1_545  A
C2731      C2732   1.407       .  A
C2731      O2736   1.371       .  S
C2732      C2733   1.410       .  A
C2732      H2737   1.083       .  S
C2733      C2734   1.417       .  A
C2734      O2738   1.372       .  S
C2735      C2740   1.406       .  A
C2735      C2744   1.404       .  A
O2736      H2752   0.992       .  S
O2738      H2749   0.992       .  S
C2740      C2741   1.401       .  A
C2740      O2745   1.372       .  S
C2741      C2742   1.409       .  A
C2741      H2746   1.083       .  S
C2742      C2743   1.415       .  A
C2743      C2744   1.406       .  A
C2743      O2747   1.371       .  S
C2744      H2748   1.083       .  S
O2745      H2750   0.992       .  S
O2747      H2751   0.992       .  S
C2753      C2754   1.404       .  A
C2753      C2758   1.408       .  A
C2753      H2763   1.083       .  S
C2754      C2759   1.484   1_655  S
C2754      C2755   1.406       .  A
C2755      C2756   1.397       .  A
C2755      O2760   1.373   1_655  S
C2756      C2757   1.406       .  A
C2756      H2761   1.083       .  S
C2757      C2758   1.415       .  A
C2758      O2762   1.371       .  S
C2759      C2764   1.406       .  A
C2759      C2768   1.403       .  A
O2760      H2776   0.992       .  S
O2762      H2773   0.992       .  S
C2764      C2765   1.397       .  A
C2764      O2769   1.372       .  S
C2765      C2766   1.410       .  A
C2765      H2770   1.083       .  S
C2766      C2767   1.416       .  A
C2767      C2768   1.407       .  A
C2767      O2771   1.371       .  S
C2768      H2772   1.083       .  S
O2769      H2774   0.992       .  S
O2771      H2775   0.992       .  S
C2777      C2778   1.399       .  A
C2777      C2782   1.395       .  A
C2777      H2787   1.084       .  S
C2778      C2783   1.486       .  S
C2778      C2779   1.414       .  A
C2779      C2780   1.408       .  A
C2779      O2784   1.371       .  S
C2780      C2781   1.403       .  A
C2780      H2785   1.083       .  S
C2781      C2782   1.411       .  A
C2782      O2786   1.371       .  S
C2783      C2788   1.412       .  A
C2783      C2792   1.403       .  A
O2784      H2800   0.992       .  S
O2786      H2797   0.991       .  S
C2788      C2789   1.399       .  A
C2788      O2793   1.372       .  S
C2789      C2790   1.399       .  A
C2789      H2794   1.084       .  S
C2790      C2791   1.409       .  A
C2791      C2792   1.404       .  A
C2791      O2795   1.371       .  S
C2792      H2796   1.083       .  S
O2793      H2798   0.992       .  S
O2795      H2799   0.991       .  S
C2801      C2802   1.406       .  A
C2801      C2806   1.400       .  A
C2801      H2811   1.084       .  S
C2802      C2807   1.496       .  S
C2802      C2803   1.412       .  A
C2803      C2804   1.409       .  A
C2803      O2808   1.372       .  S
C2804      C2805   1.405       .  A
C2804      H2809   1.083       .  S
C2805      C2806   1.411       .  A
C2806      O2810   1.372       .  S
C2807      C2812   1.413   1_545  A
C2807      C2816   1.405   1_545  A
O2808      H2824   0.992       .  S
O2810      H2821   0.992       .  S
C2812      C2813   1.407       .  A
C2812      O2817   1.371   1_565  S
C2813      C2814   1.405       .  A
C2813      H2818   1.083       .  S
C2814      C2815   1.412       .  A
C2815      C2816   1.402       .  A
C2815      O2819   1.372       .  S
C2816      H2820   1.084   1_565  S
O2817      H2822   0.992       .  S
O2819      H2823   0.992       .  S
C2825      C2826   1.405       .  A
C2825      C2830   1.405       .  A
C2825      H2835   1.083       .  S
C2826      C2831   1.489   1_455  S
C2826      C2827   1.410       .  A
C2827      C2828   1.399       .  A
C2827      O2832   1.372       .  S
C2828      C2829   1.406       .  A
C2828      H2833   1.084       .  S
C2829      C2830   1.411       .  A
C2830      O2834   1.371       .  S
C2831      C2836   1.411       .  A
C2831      C2840   1.405       .  A
O2832      H2848   0.992       .  S
O2834      H2845   0.992       .  S
C2836      C2837   1.405       .  A
C2836      O2841   1.371       .  S
C2837      C2838   1.404       .  A
C2837      H2842   1.084       .  S
C2838      C2839   1.408       .  A
C2839      C2840   1.399       .  A
C2839      O2843   1.372       .  S
C2840      H2844   1.084       .  S
O2841      H2846   0.992   1_655  S
O2843      H2847   0.992       .  S
C2849      C2850   1.400       .  A
C2849      C2854   1.398   1_556  A
C2849      H2859   1.084       .  S
C2850      C2855   1.478       .  S
C2850      C2851   1.408       .  A
C2851      C2852   1.400   1_556  A
C2851      O2856   1.372       .  S
C2852      C2853   1.405       .  A
C2852      H2857   1.083       .  S
C2853      C2854   1.415       .  A
C2854      O2858   1.372       .  S
C2855      C2860   1.408       .  A
C2855      C2864   1.399       .  A
O2856      H2872   0.992       .  S
O2858      H2869   0.992       .  S
C2860      C2861   1.401       .  A
C2860      O2865   1.372       .  S
C2861      C2862   1.406       .  A
C2861      H2866   1.083       .  S
C2862      C2863   1.415       .  A
C2863      C2864   1.396       .  A
C2863      O2867   1.372       .  S
C2864      H2868   1.084       .  S
O2865      H2870   0.992       .  S
O2867      H2871   0.992       .  S
C2873      C2874   1.406       .  A
C2873      C2878   1.398       .  A
C2873      H2883   1.084       .  S
C2874      C2879   1.485       .  S
C2874      C2875   1.409       .  A
C2875      C2876   1.402       .  A
C2875      O2880   1.373       .  S
C2876      C2877   1.406       .  A
C2876      H2881   1.084       .  S
C2877      C2878   1.407       .  A
C2878      O2882   1.371       .  S
C2879      C2884   1.412       .  A
C2879      C2888   1.400       .  A
O2880      H2896   0.992       .  S
O2882      H2893   0.992       .  S
C2884      C2885   1.402       .  A
C2884      O2889   1.371       .  S
C2885      C2886   1.406       .  A
C2885      H2890   1.083       .  S
C2886      C2887   1.416       .  A
C2887      C2888   1.395       .  A
C2887      O2891   1.372       .  S
C2888      H2892   1.084       .  S
O2889      H2894   0.992       .  S
O2891      H2895   0.991       .  S
C2897      C2898   1.404       .  A
C2897      C2902   1.407       .  A
C2897      H2907   1.083       .  S
C2898      C2903   1.485       .  S
C2898      C2899   1.409       .  A
C2899      C2900   1.399       .  A
C2899      O2904   1.374       .  S
C2900      C2901   1.399       .  A
C2900      H2905   1.084   1_556  S
C2901      C2902   1.411       .  A
C2902      O2906   1.371       .  S
C2903      C2908   1.409       .  A
C2903      C2912   1.404       .  A
O2904      H2920   0.992       .  S
O2906      H2917   0.992       .  S
C2908      C2909   1.400       .  A
C2908      O2913   1.374       .  S
C2909      C2910   1.401       .  A
C2909      H2914   1.084       .  S
C2910      C2911   1.410       .  A
C2911      C2912   1.406       .  A
C2911      O2915   1.371       .  S
C2912      H2916   1.083       .  S
O2913      H2918   0.992       .  S
O2915      H2919   0.992       .  S
C2921      C2922   1.401       .  A
C2921      C2926   1.401       .  A
C2921      H2931   1.084       .  S
C2922      C2927   1.488       .  S
C2922      C2923   1.409       .  A
C2923      C2924   1.407       .  A
C2923      O2928   1.371       .  S
C2924      C2925   1.409       .  A
C2924      H2929   1.083       .  S
C2925      C2926   1.416       .  A
C2926      O2930   1.371       .  S
C2927      C2932   1.406       .  A
C2927      C2936   1.403       .  A
O2928      H2944   0.992       .  S
O2930      H2941   0.992       .  S
C2932      C2933   1.401       .  A
C2932      O2937   1.372       .  S
C2933      C2934   1.408       .  A
C2933      H2938   1.083       .  S
C2934      C2935   1.417       .  A
C2935      C2936   1.407       .  A
C2935      O2939   1.371       .  S
C2936      H2940   1.083       .  S
O2937      H2942   0.992       .  S
O2939      H2943   0.992       .  S
C2945      C2946   1.402       .  A
C2945      C2950   1.405       .  A
C2945      H2955   1.083       .  S
C2946      C2951   1.480   1_655  S
C2946      C2947   1.405       .  A
C2947      C2948   1.397       .  A
C2947      O2952   1.372   1_655  S
C2948      C2949   1.408       .  A
C2948      H2953   1.083       .  S
C2949      C2950   1.415       .  A
C2950      O2954   1.371       .  S
C2951      C2956   1.405       .  A
C2951      C2960   1.403       .  A
O2952      H2968   0.992       .  S
O2954      H2965   0.992       .  S
C2956      C2957   1.398       .  A
C2956      O2961   1.372       .  S
C2957      C2958   1.408       .  A
C2957      H2962   1.084       .  S
C2958      C2959   1.413       .  A
C2959      C2960   1.404       .  A
C2959      O2963   1.371       .  S
C2960      H2964   1.084       .  S
O2961      H2966   0.992       .  S
O2963      H2967   0.992       .  S
C2969      C2970   1.411       .  A
C2969      C2974   1.412       .  A
C2969      H2979   1.083       .  S
C2970      C2975   1.490       .  S
C2970      C2971   1.406       .  A
C2971      C2972   1.392       .  A
C2971      O2976   1.372       .  S
C2972      C2973   1.405       .  A
C2972      H2977   1.084       .  S
C2973      C2974   1.409       .  A
C2974      O2978   1.371       .  S
C2975      C2980   1.408       .  A
C2975      C2984   1.404       .  A
O2976      H2992   0.992       .  S
O2978      H2989   0.992       .  S
C2980      C2981   1.406       .  A
C2980      O2985   1.371       .  S
C2981      C2982   1.410       .  A
C2981      H2986   1.083       .  S
C2982      C2983   1.413       .  A
C2983      C2984   1.398       .  A
C2983      O2987   1.372       .  S
C2984      H2988   1.084       .  S
O2985      H2990   0.992       .  S
O2987      H2991   0.992   1_554  S
C2993      C2994   1.404       .  A
C2993      C2998   1.398       .  A
C2993      H3003   1.084       .  S
C2994      C2999   1.485       .  S
C2994      C2995   1.408       .  A
C2995      C2996   1.406       .  A
C2995      O3000   1.372       .  S
C2996      C2997   1.405       .  A
C2996      H3001   1.084       .  S
C2997      C2998   1.406       .  A
C2998      O3002   1.372       .  S
C2999      C3004   1.410       .  A
C2999      C3008   1.404       .  A
O3000      H3016   0.991       .  S
O3002      H3013   0.992       .  S
C3004      C3005   1.405       .  A
C3004      O3009   1.371       .  S
C3005      C3006   1.404       .  A
C3005      H3010   1.084       .  S
C3006      C3007   1.406       .  A
C3007      C3008   1.397       .  A
C3007      O3011   1.372       .  S
C3008      H3012   1.084       .  S
O3009      H3014   0.992       .  S
O3011      H3015   0.992       .  S
C3017      C3018   1.401       .  A
C3017      C3022   1.397       .  A
C3017      H3027   1.084       .  S
C3018      C3023   1.486       .  S
C3018      C3019   1.409       .  A
C3019      C3020   1.406       .  A
C3019      O3024   1.371       .  S
C3020      C3021   1.409       .  A
C3020      H3025   1.083       .  S
C3021      C3022   1.415       .  A
C3022      O3026   1.372       .  S
C3023      C3028   1.409       .  A
C3023      C3032   1.404       .  A
O3024      H3040   0.992       .  S
O3026      H3037   0.992       .  S
C3028      C3029   1.396       .  A
C3028      O3033   1.372       .  S
C3029      C3030   1.406       .  A
C3029      H3034   1.083       .  S
C3030      C3031   1.416       .  A
C3031      C3032   1.405       .  A
C3031      O3035   1.371       .  S
C3032      H3036   1.083       .  S
O3033      H3038   0.992       .  S
O3035      H3039   0.992       .  S
C3041      C3042   1.403       .  A
C3041      C3046   1.398       .  A
C3041      H3051   1.084       .  S
C3042      C3047   1.491       .  S
C3042      C3043   1.412       .  A
C3043      C3044   1.408       .  A
C3043      O3048   1.372       .  S
C3044      C3045   1.406       .  A
C3044      H3049   1.084       .  S
C3045      C3046   1.412       .  A
C3046      O3050   1.372       .  S
C3047      C3052   1.409   1_455  A
C3047      C3056   1.404   1_455  A
O3048      H3064   0.992       .  S
O3050      H3061   0.992       .  S
C3052      C3053   1.406       .  A
C3052      O3057   1.371       .  S
C3053      C3054   1.410       .  A
C3053      H3058   1.083       .  S
C3054      C3055   1.414       .  A
C3055      C3056   1.399       .  A
C3055      O3059   1.371       .  S
C3056      H3060   1.084   1_655  S
O3057      H3062   0.992       .  S
O3059      H3063   0.992       .  S
C3065      C3066   1.404       .  A
C3065      C3070   1.400       .  A
C3065      H3075   1.084       .  S
C3066      C3071   1.478       .  S
C3066      C3067   1.405       .  A
C3067      C3068   1.396       .  A
C3067      O3072   1.372       .  S
C3068      C3069   1.405       .  A
C3068      H3073   1.083       .  S
C3069      C3070   1.412       .  A
C3070      O3074   1.372       .  S
C3071      C3076   1.403       .  A
C3071      C3080   1.404       .  A
O3072      H3088   0.992       .  S
O3074      H3085   0.992       .  S
C3076      C3077   1.395       .  A
C3076      O3081   1.372       .  S
C3077      C3078   1.409       .  A
C3077      H3082   1.083       .  S
C3078      C3079   1.412       .  A
C3079      C3080   1.401       .  A
C3079      O3083   1.371       .  S
C3080      H3084   1.084       .  S
O3081      H3086   0.992       .  S
O3083      H3087   0.992       .  S
C3089      C3090   1.407       .  A
C3089      C3094   1.404       .  A
C3089      H3099   1.083       .  S
C3090      C3095   1.482       .  S
C3090      C3091   1.404       .  A
C3091      C3092   1.392       .  A
C3091      O3096   1.372       .  S
C3092      C3093   1.410       .  A
C3092      H3097   1.083       .  S
C3093      C3094   1.412       .  A
C3094      O3098   1.371       .  S
C3095      C3100   1.406       .  A
C3095      C3104   1.405       .  A
O3096      H3112   0.992       .  S
O3098      H3109   0.992       .  S
C3100      C3101   1.398       .  A
C3100      O3105   1.372       .  S
C3101      C3102   1.406       .  A
C3101      H3106   1.083       .  S
C3102      C3103   1.412       .  A
C3103      C3104   1.400       .  A
C3103      O3107   1.372       .  S
C3104      H3108   1.084       .  S
O3105      H3110   0.992       .  S
O3107      H3111   0.992       .  S
C3113      C3114   1.409       .  A
C3113      C3118   1.412       .  A
C3113      H3123   1.083       .  S
C3114      C3119   1.501       .  S
C3114      C3115   1.410       .  A
C3115      C3116   1.399       .  A
C3115      O3120   1.372       .  S
C3116      C3117   1.410       .  A
C3116      H3121   1.083       .  S
C3117      C3118   1.416       .  A
C3118      O3122   1.371       .  S
C3119      C3124   1.414       .  A
C3119      C3128   1.401       .  A
O3120      H3136   0.992       .  S
O3122      H3133   0.992       .  S
C3124      C3125   1.413       .  A
C3124      O3129   1.371       .  S
C3125      C3126   1.411       .  A
C3125      H3130   1.083       .  S
C3126      C3127   1.420       .  A
C3127      C3128   1.398       .  A
C3127      O3131   1.372       .  S
C3128      H3132   1.084       .  S
O3129      H3134   0.992       .  S
O3131      H3135   0.992       .  S
