geometry optimzed in LAMMPS
_audit_creation_date              2020-11-30 
_audit_creation_method            'lammps2cif' 
_symmetry_space_group_name_H-M    'P1' 
_symmetry_Int_Tables_number       1 
_symmetry_cell_setting            triclinic 
loop_ 
_symmetry_equiv_pos_as_xyz 
  x,y,z 
_cell_length_a                    24.535112089539695 
_cell_length_b                    24.87533193673548 
_cell_length_c                    49.12640122263447 
_cell_angle_alpha                 88.50178843090706 
_cell_angle_beta                  89.89017078051468 
_cell_angle_gamma                 92.67201253903329 
loop_ 
_atom_site_label 
_atom_site_type_symbol 
_atom_site_fract_x 
_atom_site_fract_y 
_atom_site_fract_z 
_atom_site_charge 
O1          O  0.14494891  0.77596437  0.02419556    -0.81110
O2          O  0.90619700  0.80649879  0.48975664    -0.65800
O3          O  0.03387865  0.77693718  0.02965371    -1.12400
C4          C  0.02919135  0.63226800  0.46582233     1.05780
O5          O  0.88632904  0.72256880  0.50437993    -0.79000
O6          O  0.94184291  0.62604180  0.01042268    -0.66580
Ni7        Ni  0.09387644  0.82751293  0.03332600     1.34870
C8          C  0.97729989  0.62214699  0.02901196     0.84520
O9          O  0.96557880  0.86928636  0.02631321    -0.79540
O10         O  0.04980939  0.88546234  0.04280799    -0.89820
C11         C  0.87222667  0.76599125  0.49268616     0.84090
O12         O  0.09675762  0.85325908  0.49645891    -0.68020
O13         O  0.97982107  0.64352786  0.46095419    -0.87310
C14         C  0.06298064  0.85663139  0.47707635     0.84920
C15         C  0.00208749  0.90049972  0.03768198     1.06490
H16         H  0.00106925  0.74437922  0.47149169     0.38290
O17         O  0.98716029  0.73387163  0.48934990    -1.09970
O18         O  0.00718634  0.66347140  0.03504440    -0.66620
Ni19       Ni  0.04595743  0.71218341  0.50926248     1.26350
O20         O  0.01351818  0.83836291  0.47939812    -0.66850
O21         O  0.05733345  0.65174824  0.48570686    -0.79140
C22         C  0.14670023  0.72543303  0.02769876     0.84300
O23         O  0.10564840  0.69418739  0.02984406    -0.66320
Ni24       Ni  0.93163883  0.68177989  0.48289391     1.27450
Ni25       Ni  0.97343263  0.79905647  0.00854929     1.26060
H26         H  0.02087604  0.76650750  0.04769180     0.38850
O27         O  0.38795510  0.68182080  0.01093402    -0.81110
O28         O  0.62461834  0.69535823  0.50518241    -0.65800
O29         O  0.48270872  0.70712500  0.03447744    -1.12400
C30         C  0.48198157  0.85217581  0.46790981     1.05780
O31         O  0.62495818  0.77845768  0.51888551    -0.79000
O32         O  0.55819259  0.86325220  0.02049499    -0.66580
Ni33       Ni  0.43297714  0.64763278  0.03624287     1.34870
C34         C  0.51433601  0.86637196  0.03372755     0.84520
O35         O  0.55971802  0.62123518  0.03830385    -0.79540
O36         O  0.48005495  0.61248150  0.06039023    -0.89820
C37         C  0.65009534  0.74118121  0.50827092     0.84090
O38         O  0.45519556  0.60447985  0.50692884    -0.68020
O39         O  0.53431387  0.85028092  0.46803345    -0.87310
C40         C  0.48483219  0.61771799  0.48654241     0.84920
C41         C  0.52479840  0.59283413  0.05338765     1.06490
H42         H  0.52989931  0.74662736  0.47896887     0.38290
O43         O  0.53433574  0.75745011  0.49758022    -1.09970
O44         O  0.48046823  0.82533509  0.03601751    -0.66620
Ni45       Ni  0.46475110  0.76655616  0.51013801     1.26350
O46         O  0.52326772  0.65386848  0.48786101    -0.66850
O47         O  0.45035768  0.82191399  0.48320156    -0.79140
C48         C  0.36544418  0.72381443  0.01760034     0.84300
O49         O  0.39255946  0.76678059  0.02233419    -0.66320
Ni50       Ni  0.58218704  0.81581348  0.49357105     1.27450
Ni51       Ni  0.55113698  0.69317835  0.01903252     1.26060
H52         H  0.48832436  0.72050417  0.05259133     0.38850
O53         O  0.20915603  0.86957712  0.35114343    -0.81110
O54         O  0.19804967  0.10245599  0.35347028    -0.65800
O55         O  0.22349688  0.96620327  0.32542618    -1.12400
C56         C  0.37239554  0.98005648  0.38780625     1.05780
O57         O  0.28181077  0.11350862  0.33759871    -0.79000
O58         O  0.37308390  0.05315221  0.33316441    -0.66580
Ni59       Ni  0.16942276  0.91077337  0.32585239     1.34870
C60         C  0.37638551  0.01142264  0.31916123     0.84520
O61         O  0.13275663  0.03372644  0.32115517    -0.79540
O62         O  0.12793635  0.95257347  0.30202144    -0.89820
C63         C  0.24124546  0.13246200  0.34961598     0.84090
O64         O  0.12381689  0.92876736  0.35536259    -0.68020
O65         O  0.36820623  0.03136812  0.38661598    -0.87310
C66         C  0.13459643  0.95954728  0.37482926     0.84920
C67         C  0.10759399  0.99746372  0.30669015     1.06490
H68         H  0.26095480  0.01649264  0.37962020     0.38290
O69         O  0.27084179  0.02206572  0.36068159    -1.09970
O70         O  0.33801307  0.97511880  0.31950441    -0.66620
Ni71       Ni  0.28550807  0.95512137  0.34819051     1.26350
O72         O  0.16740204  0.00054457  0.37225912    -0.66850
O73         O  0.34509963  0.94699968  0.37296953    -0.79140
C74         C  0.25589528  0.85329085  0.34586331     0.84300
O75         O  0.29264708  0.88546526  0.33672974    -0.66320
Ni76       Ni  0.32651935  0.07465871  0.36168871     1.27450
Ni77       Ni  0.20425833  0.03169068  0.34014523     1.26060
H78         H  0.23563089  0.97286868  0.30686859     0.38850
O79         O  0.32784918  0.61414624  0.35874802    -0.81110
O80         O  0.32906157  0.37975892  0.36845250    -0.65800
O81         O  0.31199630  0.51739789  0.33686613    -1.12400
C82         C  0.15716729  0.50492178  0.39709956     1.05780
O83         O  0.24745247  0.37356004  0.34936206    -0.79000
O84         O  0.15493316  0.43609492  0.34436905    -0.66580
Ni85       Ni  0.36866056  0.57064048  0.33579415     1.34870
C86         C  0.15281243  0.48189162  0.33242720     0.84520
O87         O  0.40193928  0.44715943  0.33714014    -0.79540
O88         O  0.41360276  0.52696268  0.31465707    -0.89820
C89         C  0.28643948  0.35131502  0.36175397     0.84090
O90         O  0.40895097  0.55117082  0.36694266    -0.68020
O91         O  0.16064735  0.45356016  0.39690256    -0.87310
C92         C  0.39694415  0.52232870  0.38782970     0.84920
C93         C  0.43125210  0.48150018  0.32225712     1.06490
H94         H  0.26750469  0.46698702  0.39168582     0.38290
O95         O  0.25958997  0.46248025  0.37260623    -1.09970
O96         O  0.19599795  0.51215125  0.32989090    -0.66620
Ni97       Ni  0.24809593  0.52991502  0.35854541     1.26350
O98         O  0.36244087  0.48240768  0.38660495    -0.66850
O99         O  0.18682754  0.53819282  0.38232920    -0.79140
C100        C  0.28160861  0.63110435  0.35257075     0.84300
O101        O  0.24337501  0.59971228  0.34527881    -0.66320
Ni102      Ni  0.20235897  0.41129589  0.37278153     1.27450
Ni103      Ni  0.32802181  0.45165376  0.35410345     1.26060
H104        H  0.30080215  0.51043556  0.31839527     0.38850
O105        O  0.82294449  0.38349000  0.25562438    -0.81110
O106        O  0.83059985  0.62596295  0.26260393    -0.65800
O107        O  0.81349981  0.47732272  0.28132576    -1.12400
C108        C  0.68247306  0.48812587  0.20953523     1.05780
O109        O  0.74129095  0.61745909  0.27092845    -0.79000
O110        O  0.65416505  0.54552904  0.26130493    -0.66580
Ni111      Ni  0.86810617  0.42669843  0.27847661     1.34870
C112        C  0.65261579  0.50588607  0.27810114     0.84520
O113        O  0.89818585  0.55629478  0.29339362    -0.79540
O114        O  0.91741995  0.46863791  0.29996556    -0.89820
C115        C  0.78395607  0.64685938  0.26584217     0.84090
O116        O  0.90315376  0.45304750  0.24635630    -0.68020
O117        O  0.68936246  0.53944935  0.20964110    -0.87310
C118        C  0.90429485  0.49647203  0.23246287     0.84920
C119        C  0.92924697  0.51871954  0.30244182     1.06490
H120        H  0.78631928  0.53336225  0.22760415     0.38290
O121        O  0.77093317  0.53587101  0.24560375    -1.09970
O122        O  0.69640682  0.48184724  0.28361715    -0.66620
Ni123      Ni  0.75281409  0.46648646  0.25677392     1.26350
O124        O  0.87888186  0.53779389  0.23937285    -0.66850
O125        O  0.69781491  0.45759769  0.22928803    -0.79140
C126        C  0.77698105  0.36499886  0.26382085     0.84300
O127        O  0.73972747  0.39601240  0.26855191    -0.66320
Ni128      Ni  0.71327352  0.58076429  0.24044101     1.27450
Ni129      Ni  0.83110839  0.54969007  0.27050099     1.26060
H130        H  0.80018072  0.47649402  0.29986157     0.38850
O131        O  0.70202230  0.12262291  0.27816845    -0.81110
O132        O  0.69783194  0.89214261  0.24088065    -0.65800
O133        O  0.72104673  0.01646290  0.28303936    -1.12400
C134        C  0.86173886  0.05650150  0.21696804     1.05780
O135        O  0.78855480  0.88478455  0.24428580    -0.79000
O136        O  0.87079949  0.95675912  0.25420323    -0.66580
Ni137      Ni  0.66555871  0.06096583  0.29272060     1.34870
C138        C  0.87673255  0.98487007  0.27534821     0.84520
O139        O  0.62702307  0.93910320  0.27687822    -0.79540
O140        O  0.62972376  0.99934145  0.30859399    -0.89820
C141        C  0.74006528  0.86429591  0.24492509     0.84090
O142        O  0.62530563  0.06030010  0.25827528    -0.68020
O143        O  0.85018225  0.00966034  0.20790385    -0.87310
C144        C  0.63231046  0.03845399  0.23533415     0.84920
C145        C  0.60201721  0.96786080  0.29397529     1.06490
H146        H  0.75139778  0.00287908  0.22424281     0.38290
O147        O  0.76463253  0.98655387  0.24083212    -1.09970
O148        O  0.83798967  0.01306815  0.28394952    -0.66620
Ni149      Ni  0.78131310  0.04623760  0.26177863     1.26350
O150        O  0.66095396  0.99724317  0.23339974    -0.66850
O151        O  0.83928431  0.07482018  0.23816779    -0.79140
C152        C  0.75083537  0.13993716  0.28116464     0.84300
O153        O  0.78944905  0.10815797  0.28307417    -0.66320
Ni154      Ni  0.81821865  0.94685651  0.22615807     1.27450
Ni155      Ni  0.70070874  0.95768806  0.26048146     1.26060
H156        H  0.73565366  0.00165158  0.29972744     0.38850
O157        O  0.13607753  0.30672501  0.09435947    -0.81110
O158        O  0.89201922  0.33019869  0.08863948    -0.65800
O159        O  0.03325961  0.29855873  0.11419837    -1.12400
C160        C  0.99591063  0.12782072  0.06988013     1.05780
O161        O  0.87699623  0.25258401  0.10726477    -0.79000
O162        O  0.92993253  0.17324334  0.12380455    -0.66580
Ni163      Ni  0.09037256  0.35094066  0.11599299     1.34870
C164        C  0.97219818  0.17785901  0.13827205     0.84520
O165        O  0.96046139  0.37863719  0.12478158    -0.79540
O166        O  0.04658661  0.39408724  0.13928489    -0.89820
C167        C  0.85938340  0.29031303  0.09321328     0.84090
O168        O  0.07075363  0.39887013  0.08621631    -0.68020
O169        O  0.94660955  0.14147007  0.07120389    -0.87310
C170        C  0.02708582  0.40399792  0.07251134     0.84920
C171        C  0.99539052  0.40316300  0.13988441     1.06490
H172        H  0.97202755  0.25883817  0.06241922     0.38290
O173        O  0.96962204  0.25065631  0.08173032    -1.09970
O174        O  0.01747361  0.19690950  0.12917044    -0.66620
Ni175      Ni  0.03882098  0.23138704  0.09491106     1.26350
O176        O  0.98996465  0.36591511  0.07225576    -0.66850
O177        O  0.03663117  0.15945536  0.07735784    -0.79140
C178        C  0.14857639  0.25960505  0.10291650     0.84300
O179        O  0.11181595  0.22213386  0.10637517    -0.66320
Ni180      Ni  0.91159651  0.19893162  0.08862317     1.27450
Ni181      Ni  0.96408374  0.31729695  0.10183158     1.26060
H182        H  0.02742607  0.28929912  0.13321787     0.38850
O183        O  0.64417066  0.19916336  0.06674890    -0.81110
O184        O  0.40459274  0.17887398  0.11799001    -0.65800
O185        O  0.53563226  0.20286874  0.07584646    -1.12400
C186        C  0.56628564  0.33968961  0.14201123     1.05780
O187        O  0.39955808  0.26671369  0.11065847    -0.79000
O188        O  0.47175689  0.35260671  0.10602662    -0.66580
Ni189      Ni  0.58648764  0.14746811  0.07524887     1.34870
C190        C  0.49942135  0.36050286  0.08454243     0.84520
O191        O  0.45242726  0.11915246  0.07762768    -0.79540
O192        O  0.53521161  0.08786040  0.08151134    -0.89820
C193        C  0.37624015  0.22104137  0.11620610     0.84090
O194        O  0.59778499  0.15026808  0.11387782    -0.68020
O195        O  0.51869047  0.32625633  0.15156236    -0.87310
C196        C  0.56097968  0.13424804  0.13108447     0.84920
C197        C  0.48550426  0.08081003  0.07528314     1.06490
H198        H  0.51829069  0.23014278  0.13506882     0.38290
O199        O  0.50209206  0.24410689  0.11863618    -1.09970
O200        O  0.52450170  0.32134491  0.07439790    -0.66620
Ni201      Ni  0.56096990  0.26553994  0.09625525     1.26350
O202        O  0.50985940  0.13861232  0.12584886    -0.66850
O203        O  0.58551985  0.32220968  0.11983823    -0.79140
C204        C  0.65322417  0.24990343  0.06405767     0.84300
O205        O  0.62086320  0.28322753  0.07304948    -0.66320
Ni206      Ni  0.45796929  0.29558155  0.13177337     1.27450
Ni207      Ni  0.47349091  0.18402522  0.09825871     1.26060
H208        H  0.52459673  0.21316842  0.05765043     0.38850
C209        C  0.22410627  0.19565570  0.10386430    -0.05990
C210        C  0.20610563  0.24753157  0.10910565    -0.00070
C211        C  0.24204777  0.28499780  0.12201803    -0.08640
C212        C  0.29558405  0.27054881  0.12721892    -0.06020
C213        C  0.31576271  0.22150841  0.11879726    -0.00080
C214        C  0.27875714  0.18196871  0.10836462    -0.08550
C215        C  0.29689242  0.12653879  0.10146606     0.61830
H216        H  0.19547238  0.16647958  0.09516941     0.12520
H217        H  0.32371214  0.29964099  0.13636405     0.12540
C218        C  0.22482625  0.34033254  0.13021392     0.62060
F219        F  0.25364280  0.09318966  0.09319158    -0.23100
F220        F  0.31981449  0.10279869  0.12422412    -0.20430
F221        F  0.33490986  0.13069864  0.08063328    -0.20110
F222        F  0.17767693  0.33528464  0.14573001    -0.20160
F223        F  0.21593715  0.37187302  0.10719341    -0.20480
F224        F  0.26436913  0.36703681  0.14553655    -0.23160
C225        C  0.77990806  0.32829356  0.06991718    -0.05990
C226        C  0.80728844  0.28275204  0.07899880    -0.00070
C227        C  0.78547144  0.23045938  0.07237899    -0.08640
C228        C  0.74442889  0.22815842  0.05298317    -0.06020
C229        C  0.70737435  0.26882644  0.05340125    -0.00080
C230        C  0.72811883  0.32174738  0.05797897    -0.08550
C231        C  0.69661091  0.37067946  0.05077259     0.61830
H232        H  0.79680542  0.36838125  0.07386220     0.12520
H233        H  0.73081953  0.18905526  0.04563397     0.12540
C234        C  0.79388941  0.17843032  0.08883448     0.62060
F235        F  0.72975279  0.40755379  0.03612497    -0.23100
F236        F  0.67939822  0.39411734  0.07431918    -0.20430
F237        F  0.65187300  0.35715917  0.03484741    -0.20110
F238        F  0.80025768  0.18797222  0.11628518    -0.20160
F239        F  0.83777317  0.15256350  0.07887738    -0.20480
F240        F  0.74877373  0.14306903  0.08702612    -0.23160
C241        C  0.62780473  0.04285549  0.18437214    -0.05990
C242        C  0.60901479  0.06250132  0.20924538    -0.00070
C243        C  0.57209335  0.10540417  0.20780797    -0.08640
C244        C  0.55734970  0.12718831  0.18199561    -0.06020
C245        C  0.57786030  0.10835886  0.15751528    -0.00080
C246        C  0.61282946  0.06444585  0.15872929    -0.08550
C247        C  0.63296888  0.03872593  0.13306367     0.61830
H248        H  0.65554607  0.01032313  0.18499035     0.12520
H249        H  0.52996843  0.16005408  0.18067164     0.12540
C250        C  0.54662736  0.12765755  0.23301032     0.62060
F251        F  0.66690950  0.07483218  0.11847361    -0.23100
F252        F  0.66205861  0.99344964  0.13884396    -0.20430
F253        F  0.58893579  0.02303021  0.11716761    -0.20110
F254        F  0.58636170  0.15217890  0.24897007    -0.20160
F255        F  0.51984945  0.08605323  0.24744511    -0.20480
F256        F  0.50878060  0.16562837  0.22671322    -0.23160
C257        C  0.89713086  0.14732457  0.20156970    -0.05990
C258        C  0.90304381  0.09140324  0.20208510    -0.00070
C259        C  0.94870259  0.07059893  0.18859551    -0.08640
C260        C  0.98130232  0.10544163  0.17184153    -0.06020
C261        C  0.96665941  0.15802376  0.16656615    -0.00080
C262        C  0.92904889  0.18130406  0.18398812    -0.08550
C263        C  0.92377744  0.24176856  0.18399512     0.61830
H264        H  0.86527260  0.16388590  0.21363844     0.12520
H265        H  0.01437270  0.09014691  0.16024511     0.12540
C266        C  0.96199475  0.01179787  0.19043486     0.62060
F267        F  0.88879510  0.25685856  0.20428476    -0.23100
F268        F  0.90417251  0.26002848  0.15933628    -0.20430
F269        F  0.97454683  0.26646983  0.18843979    -0.20110
F270        F  0.92671730  0.98192059  0.17419390    -0.20160
F271        F  0.95711385  0.99341511  0.21698894    -0.20480
F272        F  0.01488119  0.00394704  0.18206341    -0.23160
C273        C  0.58003675  0.43164546  0.15825836    -0.05990
C274        C  0.59978174  0.37999148  0.15638073     0.00170
C275        C  0.65142891  0.36886295  0.16693549    -0.08640
C276        C  0.67972253  0.40922637  0.18124771    -0.06020
C277        C  0.65739800  0.45939703  0.18613820    -0.00080
C278        C  0.60849224  0.47267095  0.17228089    -0.08550
C279        C  0.58339301  0.52744255  0.17040706     0.61830
H280        H  0.54175538  0.44015619  0.14839239     0.12520
H281        H  0.71870314  0.40055010  0.19028742     0.12540
C282        C  0.67507629  0.31375653  0.16443489     0.62060
F283        F  0.57969941  0.54295688  0.14323233    -0.23100
F284        F  0.61247996  0.56776058  0.18335365    -0.20430
F285        F  0.53120577  0.52348605  0.18122277    -0.20110
F286        F  0.68552836  0.30396591  0.13739156    -0.20160
F287        F  0.63840121  0.27441585  0.17477265    -0.20480
F288        F  0.72350191  0.30991366  0.17862583    -0.23160
C289        C  0.90281012  0.48930859  0.18261133    -0.05990
C290        C  0.93408887  0.49431183  0.20627825    -0.00070
C291        C  0.98902208  0.47924827  0.20578949    -0.08640
C292        C  0.00861367  0.45309487  0.18292563    -0.06020
C293        C  0.97515104  0.44157611  0.16038047    -0.00080
C294        C  0.92245880  0.46385241  0.15940728    -0.08550
C295        C  0.88580549  0.46006242  0.13460585     0.61830
H296        H  0.86082126  0.50095550  0.18329683     0.12520
H297        H  0.04953214  0.43863264  0.18337282     0.12540
C298        C  0.02673221  0.49120213  0.22949031     0.62060
F299        F  0.84349787  0.49485919  0.13598592    -0.23100
F300        F  0.86314650  0.40836093  0.13269684    -0.20430
F301        F  0.91563583  0.47392393  0.11138637    -0.20110
F302        F  0.00990935  0.46192805  0.25253985    -0.20160
F303        F  0.02606858  0.54548192  0.23453734    -0.20480
F304        F  0.08001622  0.47896055  0.22392921    -0.23160
C305        C  0.73595524  0.71514501  0.24014157    -0.05990
C306        C  0.77457052  0.70344759  0.26041525    -0.00070
C307        C  0.79240368  0.74310013  0.27858877    -0.08640
C308        C  0.77232908  0.79450944  0.27521556    -0.06020
C309        C  0.73738042  0.80757663  0.25347334    -0.00080
C310        C  0.71725424  0.76720550  0.23619046    -0.08550
C311        C  0.67756567  0.77963879  0.21352829     0.61830
H312        H  0.72074210  0.68298521  0.22733533     0.12520
H313        H  0.78721950  0.82636207  0.28830599     0.12540
C314        C  0.83252840  0.73095677  0.30116434     0.62060
F315        F  0.66127282  0.73393541  0.19965352    -0.23100
F316        F  0.70169487  0.81640146  0.19506926    -0.20430
F317        F  0.63161878  0.80113236  0.22445896    -0.20110
F318        F  0.88041746  0.71418703  0.28994909    -0.20160
F319        F  0.81058083  0.69065328  0.31837283    -0.20480
F320        F  0.84510499  0.77570825  0.31652299    -0.23160
C321        C  0.81421925  0.28087507  0.27746997    -0.05990
C322        C  0.76868021  0.30827857  0.26864731    -0.00070
C323        C  0.71753956  0.28154121  0.26514851    -0.08640
C324        C  0.71452882  0.22672934  0.27006495    -0.06020
C325        C  0.76023113  0.19813367  0.27846663    -0.00080
C326        C  0.81100181  0.22578897  0.28282990    -0.08550
C327        C  0.86074629  0.19905894  0.29406333     0.61830
H328        H  0.85247022  0.30340701  0.28055434     0.12520
H329        H  0.67541024  0.20603548  0.26711837     0.12540
C330        C  0.66647970  0.30958213  0.25588355     0.62060
F331        F  0.90369072  0.23573755  0.29878218    -0.23100
F332        F  0.87894640  0.16252098  0.27577503    -0.20430
F333        F  0.84701421  0.17378832  0.31866752    -0.20110
F334        F  0.67757686  0.33983265  0.23241232    -0.20160
F335        F  0.64913843  0.34249034  0.27612595    -0.20480
F336        F  0.62360993  0.27344948  0.25020189    -0.23160
C337        C  0.49843369  0.46645326  0.28553718    -0.05990
C338        C  0.48902113  0.47149792  0.31340759    -0.00070
C339        C  0.53563949  0.48061838  0.33043615    -0.08640
C340        C  0.58869299  0.48860803  0.31861961    -0.06020
C341        C  0.59736736  0.48758709  0.29036214    -0.00080
C342        C  0.55121342  0.47326844  0.27382246    -0.08550
C343        C  0.55708323  0.46494534  0.24364013     0.61830
H344        H  0.46315323  0.45967507  0.27264378     0.12520
H345        H  0.62332579  0.49918280  0.33136250     0.12540
C346        C  0.52972483  0.48799939  0.36072745     0.62060
F347        F  0.50837694  0.44811668  0.23166851    -0.23100
F348        F  0.59404053  0.42579110  0.23952225    -0.20430
F349        F  0.57457093  0.51272374  0.23100489    -0.20110
F350        F  0.49118091  0.45122979  0.37159306    -0.20160
F351        F  0.51453164  0.53972978  0.36527196    -0.20480
F352        F  0.57839343  0.48037617  0.37418909    -0.23160
C353        C  0.05312618  0.48353296  0.34257956    -0.05990
C354        C  0.09632470  0.50130238  0.32505055    -0.00070
C355        C  0.08357047  0.53861653  0.30367457    -0.08640
C356        C  0.02784716  0.55135267  0.29912389    -0.06020
C357        C  0.98445661  0.52916830  0.31540060    -0.00080
C358        C  0.99868009  0.49801450  0.33871961    -0.08550
C359        C  0.95700047  0.47734502  0.35978670     0.61830
H360        H  0.06190446  0.45796266  0.36008462     0.12520
H361        H  0.01728502  0.57595675  0.28164265     0.12540
C362        C  0.12774263  0.56261021  0.28482385     0.62060
F363        F  0.97515515  0.49085657  0.38548541    -0.23100
F364        F  0.95085918  0.42190237  0.35861666    -0.20430
F365        F  0.90664887  0.49917163  0.35598637    -0.20110
F366        F  0.15452973  0.52178908  0.27266780    -0.20160
F367        F  0.16469529  0.59392606  0.29938254    -0.20480
F368        F  0.10668665  0.59509431  0.26450511    -0.23160
C369        C  0.01139976  0.02639761  0.31332667    -0.05990
C370        C  0.04994770  0.00211156  0.29683804    -0.00070
C371        C  0.02996416  0.97000878  0.27512304    -0.08640
C372        C  0.97360486  0.96043615  0.27220221    -0.06020
C373        C  0.93436874  0.98741068  0.28704243    -0.00080
C374        C  0.95402341  0.01980608  0.30880615    -0.08550
C375        C  0.91513077  0.04469559  0.32816485     0.61830
H376        H  0.02651017  0.04884268  0.33054609     0.12520
H377        H  0.96026331  0.93193544  0.25707242     0.12540
C378        C  0.06720136  0.94376829  0.25492471     0.62060
F379        F  0.94209159  0.06984600  0.34941954    -0.23100
F380        F  0.87932124  0.00525804  0.33908345    -0.20430
F381        F  0.88633379  0.08263310  0.31430794    -0.20110
F382        F  0.08309047  0.89484944  0.26548216    -0.20160
F383        F  0.11270564  0.97707178  0.24907856    -0.20480
F384        F  0.04098462  0.93399314  0.23052058    -0.23160
C385        C  0.52648795  0.02926385  0.29916819    -0.05990
C386        C  0.54115941  0.97606817  0.29451226    -0.00070
C387        C  0.49847335  0.93619779  0.29223005    -0.08640
C388        C  0.44357717  0.95023352  0.29739117    -0.06020
C389        C  0.43010507  0.00281846  0.30483330    -0.00080
C390        C  0.47256797  0.04383180  0.30345335    -0.08550
C391        C  0.46289534  0.10326489  0.30740667     0.61830
H392        H  0.55849821  0.06059040  0.30009950     0.12520
H393        H  0.41127593  0.91924562  0.29731687     0.12540
C394        C  0.51127103  0.87898858  0.28587171     0.62060
F395        F  0.50535508  0.13614842  0.29689686    -0.23100
F396        F  0.45877725  0.11350632  0.33486087    -0.20430
F397        F  0.41585673  0.11751472  0.29407601    -0.20110
F398        F  0.54579320  0.85901017  0.30552001    -0.20160
F399        F  0.53639110  0.87807352  0.26067695    -0.20480
F400        F  0.46463751  0.84556819  0.28523582    -0.23160
C401        C  0.30456995  0.20309031  0.36627451    -0.05990
C402        C  0.24983557  0.18553105  0.36170576    -0.00070
C403        C  0.20755224  0.22089900  0.36586388    -0.08640
C404        C  0.22248946  0.27477645  0.37043556    -0.06020
C405        C  0.27744996  0.29406849  0.36899214    -0.00080
C406        C  0.31948386  0.25750594  0.36926603    -0.08550
C407        C  0.37934676  0.27563779  0.37073736     0.61830
H408        H  0.33634720  0.17445862  0.36511581     0.12520
H409        H  0.19084274  0.30338820  0.37237276     0.12540
C410        C  0.14758766  0.20343047  0.36357625     0.62060
F411        F  0.41295779  0.23244877  0.37188712    -0.23100
F412        F  0.38844661  0.30512977  0.39391087    -0.20430
F413        F  0.39382731  0.30697111  0.34795252    -0.20110
F414        F  0.13477174  0.16308916  0.38274228    -0.20160
F415        F  0.13678773  0.18480211  0.33775900    -0.20480
F416        F  0.11380668  0.24539978  0.36807542    -0.23160
C417        C  0.32061955  0.72079717  0.34952967    -0.05990
C418        C  0.27392595  0.68747091  0.35400448    -0.00070
C419        C  0.22306440  0.70873494  0.35979395    -0.08640
C420        C  0.21961604  0.76376361  0.35712390    -0.06020
C421        C  0.26576283  0.79727559  0.35086435    -0.00080
C422        C  0.31807846  0.77599193  0.34916114    -0.08550
C423        C  0.37111359  0.80982079  0.34812210     0.61830
H424        H  0.35949210  0.70322922  0.34593992     0.12520
H425        H  0.18010101  0.78065456  0.35958047     0.12540
C426        C  0.17346876  0.67502164  0.36988284     0.62060
F427        F  0.41643143  0.77894504  0.35087550    -0.23100
F428        F  0.37177675  0.84473568  0.36948320    -0.20430
F429        F  0.37597668  0.83780418  0.32354652    -0.20110
F430        F  0.18833544  0.64320610  0.39183731    -0.20160
F431        F  0.15238430  0.64334187  0.34937952    -0.20480
F432        F  0.13225999  0.70671683  0.37858708    -0.23160
C433        C  0.46836220  0.92756755  0.06759894    -0.05990
C434        C  0.50180329  0.92201531  0.04443112    -0.00070
C435        C  0.52025595  0.97118759  0.03038537    -0.08640
C436        C  0.50096985  0.02090692  0.03852501    -0.06020
C437        C  0.47260100  0.02699782  0.06284286    -0.00080
C438        C  0.45624233  0.97907255  0.07784466    -0.08550
C439        C  0.42753068  0.98017711  0.10508277     0.61830
H440        H  0.45403468  0.89147087  0.07874979     0.12520
H441        H  0.51428820  0.05763066  0.02762254     0.12540
C442        C  0.56277033  0.97380104  0.50763077     0.62060
F443        F  0.37931426  0.94919639  0.10409317    -0.23100
F444        F  0.41514187  0.03161313  0.11218653    -0.20430
F445        F  0.46058203  0.95891205  0.12502409    -0.20110
F446        F  0.54346705  0.94597575  0.48562558    -0.20160
F447        F  0.61072875  0.95291115  0.51695549    -0.20480
F448        F  0.57574111  0.02591402  0.49836766    -0.23160
C449        C  0.54593690  0.43722344  0.05500105    -0.05990
C450        C  0.50535000  0.41933099  0.07421046    -0.00070
C451        C  0.47574309  0.46040670  0.08685638    -0.08640
C452        C  0.49215752  0.51491625  0.08253894    -0.06020
C453        C  0.52938612  0.53353026  0.06217414    -0.00080
C454        C  0.55685479  0.49328085  0.04795877    -0.08550
C455        C  0.59705412  0.50915837  0.52542103     0.61830
H456        H  0.56850151  0.40692314  0.04517226     0.12520
H457        H  0.47225300  0.54443950  0.09438882     0.12540
C458        C  0.42454787  0.44889581  0.10423637     0.62060
F459        F  0.62060333  0.46482406  0.51471377    -0.23100
F460        F  0.63825640  0.54282126  0.53549061    -0.20430
F461        F  0.57066023  0.53554476  0.50453651    -0.20110
F462        F  0.43863048  0.43247316  0.13030284    -0.20160
F463        F  0.39093301  0.40989200  0.09239630    -0.20480
F464        F  0.39409882  0.49410881  0.10649082    -0.23160
C465        C  0.45675717  0.53597992  0.46049794    -0.05990
C466        C  0.47048271  0.59169089  0.46035764    -0.00070
C467        C  0.46091942  0.62270611  0.43647646    -0.08640
C468        C  0.43679077  0.59723115  0.41410494    -0.06020
C469        C  0.42329249  0.54131405  0.41373319    -0.00080
C470        C  0.43544226  0.50960490  0.43731656    -0.08550
C471        C  0.42827394  0.44870887  0.43960321     0.61830
H472        H  0.46340226  0.51251423  0.47901417     0.12520
H473        H  0.42735852  0.62205508  0.39649167     0.12540
C474        C  0.47397218  0.68308324  0.43468749     0.62060
F475        F  0.47486803  0.42796352  0.45076319    -0.23100
F476        F  0.41997800  0.42454632  0.41494504    -0.20430
F477        F  0.38458872  0.43488679  0.45660395    -0.20110
F478        F  0.52972431  0.69278046  0.43673951    -0.20160
F479        F  0.44772253  0.70825728  0.45539302    -0.20480
F480        F  0.45742430  0.70605674  0.41026756    -0.23160
C481        C  0.38664062  0.95253592  0.43528976    -0.05990
C482        C  0.40715825  0.95601594  0.40875490    -0.00070
C483        C  0.45544470  0.93020707  0.40234592    -0.08640
C484        C  0.47928010  0.89765768  0.42251911    -0.06020
C485        C  0.45693500  0.89139143  0.44890148    -0.00080
C486        C  0.41153765  0.92225988  0.45587157    -0.08550
C487        C  0.38768831  0.92709346  0.48424129     0.61830
H488        H  0.34999556  0.97337150  0.43995309     0.12520
H489        H  0.51484248  0.87560415  0.41754005     0.12540
C490        C  0.48172267  0.93772648  0.37444635     0.62060
F491        F  0.33528344  0.90408665  0.48491813    -0.23100
F492        F  0.38545675  0.98102374  0.49023529    -0.20430
F493        F  0.41756098  0.90343970  0.00447531    -0.20110
F494        F  0.49253655  0.99199030  0.36896082    -0.20160
F495        F  0.44711461  0.91738599  0.35479152    -0.20480
F496        F  0.53027725  0.91177806  0.37281905    -0.23160
C497        C  0.04287467  0.55241510  0.04457534    -0.05990
C498        C  0.98817079  0.56661568  0.04137362    -0.00070
C499        C  0.94692531  0.52530548  0.04653257    -0.08640
C500        C  0.96182957  0.47264989  0.05485913    -0.06020
C501        C  0.01652005  0.45858463  0.05869775    -0.00080
C502        C  0.05789643  0.49972150  0.05281704    -0.08550
C503        C  0.11816563  0.48853095  0.05456817     0.61830
H504        H  0.07447895  0.58315016  0.03998705     0.12520
H505        H  0.92999594  0.44204698  0.05922726     0.12540
C506        C  0.88689158  0.53687249  0.04420017     0.62060
F507        F  0.15041309  0.52904229  0.04193143    -0.23100
F508        F  0.12807130  0.44096254  0.04184610    -0.20430
F509        F  0.13386598  0.48482859  0.08154106    -0.20110
F510        F  0.87302319  0.54374019  0.01712269    -0.20160
F511        F  0.87642779  0.58300563  0.05806179    -0.20480
F512        F  0.85373000  0.49520481  0.05518193    -0.23160
C513        C  0.00815398  0.97333200  0.07189199    -0.05990
C514        C  0.99286103  0.95818196  0.04548330    -0.00070
C515        C  0.98259787  0.00043296  0.02626589    -0.08640
C516        C  0.98693071  0.05532977  0.03434945    -0.06020
C517        C  0.00280389  0.07029915  0.06083521    -0.00080
C518        C  0.01179944  0.02776492  0.07997415    -0.08550
C519        C  0.01947208  0.03958115  0.10966902     0.61830
H520        H  0.01684821  0.94150096  0.08648235     0.12520
H521        H  0.97759122  0.08724250  0.01994297     0.12540
C522        C  0.96948734  0.98768215  0.49697665     0.62060
F523        F  0.02949357  0.99383129  0.12516156    -0.23100
F524        F  0.97191317  0.06039704  0.11898058    -0.20430
F525        F  0.06284951  0.07635233  0.11293536    -0.20110
F526        F  0.92332919  0.95373338  0.49595069    -0.20160
F527        F  0.01289996  0.96290699  0.48558348    -0.20480
F528        F  0.96012313  0.03358663  0.48147495    -0.23160
C529        C  0.08348943  0.55238449  0.45922784    -0.05990
C530        C  0.05513773  0.59486307  0.44750200    -0.00070
C531        C  0.05365732  0.60177176  0.41873855    -0.08640
C532        C  0.08519632  0.56879313  0.40292056    -0.06020
C533        C  0.11655718  0.52876211  0.41475739    -0.00080
C534        C  0.11330102  0.51801084  0.44315470    -0.08550
C535        C  0.14196563  0.47144233  0.45642275     0.61830
H536        H  0.08237242  0.54666694  0.48116623     0.12520
H537        H  0.08690007  0.57492133  0.38102065     0.12540
C538        C  0.02095348  0.64495096  0.40471187     0.62060
F539        F  0.13440222  0.46913327  0.48435288    -0.23100
F540        F  0.19739882  0.47672568  0.45122609    -0.20430
F541        F  0.12119330  0.42350058  0.44612701    -0.20110
F542        F  0.03547868  0.69486822  0.41495896    -0.20160
F543        F  0.96581791  0.63374218  0.40893793    -0.20480
F544        F  0.02979145  0.64751518  0.37684669    -0.23160
C545        C  0.04308991  0.90518702  0.43297043    -0.05990
C546        C  0.08225631  0.88472099  0.45103865    -0.00070
C547        C  0.13876479  0.89263716  0.44396424    -0.08640
C548        C  0.15320596  0.92205802  0.41998635    -0.06020
C549        C  0.11416956  0.94134021  0.40202592    -0.00080
C550        C  0.05813963  0.93272726  0.40834520    -0.08550
C551        C  0.01478219  0.95352759  0.38930433     0.61830
H552        H  0.00030763  0.89925626  0.43817950     0.12520
H553        H  0.19575741  0.92797345  0.41419846     0.12540
C554        C  0.18442641  0.86817999  0.46043283     0.62060
F555        F  0.96293566  0.94580440  0.40030172    -0.23100
F556        F  0.01581811  0.92706177  0.36492308    -0.20430
F557        F  0.02462959  0.00809522  0.38430873    -0.20110
F558        F  0.17244596  0.81388926  0.46517107    -0.20160
F559        F  0.19081393  0.89403812  0.98487785    -0.20480
F560        F  0.23408481  0.87288165  0.44690592    -0.23160
C561        C  0.78801817  0.81184480  0.99278471    -0.05990
C562        C  0.81568282  0.76802302  0.48424910    -0.00070
C563        C  0.78656329  0.72034031  0.47677008    -0.08640
C564        C  0.73205413  0.71316956  0.48458524    -0.06020
C565        C  0.70539468  0.75420808  0.49738117    -0.00080
C566        C  0.73259571  0.80652418  0.99932672    -0.08550
C567        C  0.70572671  0.85686572  0.00879612     0.61830
H568        H  0.81154226  0.84848111  0.99726523     0.12520
H569        H  0.71081073  0.67473339  0.48120945     0.12540
C570        C  0.81292460  0.67508251  0.46236035     0.62060
F571        F  0.74068007  0.90220986  0.00703921    -0.23100
F572        F  0.68949799  0.85062981  0.03572003    -0.20430
F573        F  0.66169226  0.86701393  0.49232853    -0.20110
F574        F  0.82226827  0.63360580  0.48081336    -0.20160
F575        F  0.86164222  0.69251511  0.45011508    -0.20480
F576        F  0.77863063  0.65575627  0.44215312    -0.23160
C577        C  0.28643417  0.70513068  0.04519993    -0.05990
C578        C  0.30825258  0.72046274  0.01972504    -0.00070
C579        C  0.27644393  0.72226784  0.49601905    -0.08640
C580        C  0.22094943  0.71166596  0.49898840    -0.06020
C581        C  0.19839302  0.70368893  0.02497758    -0.00080
C582        C  0.23047424  0.69695088  0.04826251    -0.08550
C583        C  0.20498098  0.68367190  0.07591872     0.61830
H584        H  0.31329662  0.70093243  0.06255279     0.12520
H585        H  0.19413661  0.71581778  0.48161374     0.12540
C586        C  0.30095398  0.73755117  0.46827139     0.62060
F587        F  0.24414156  0.67551899  0.09565628    -0.23100
F588        F  0.17211084  0.63714475  0.07434186    -0.20430
F589        F  0.17360262  0.72531887  0.08388647    -0.20110
F590        F  0.33624525  0.69896743  0.46058813    -0.20160
F591        F  0.32931268  0.78682506  0.46953203    -0.20480
F592        F  0.26138410  0.74157442  0.44836733    -0.23160
O593        O  0.14494903  0.77596435  0.52419545    -0.81110
O594        O  0.90619689  0.80649872  0.98975666    -0.65800
O595        O  0.03387879  0.77693722  0.52965365    -1.12400
C596        C  0.02919136  0.63226801  0.96582234     1.05780
O597        O  0.88632897  0.72256872  0.00437994    -0.79000
O598        O  0.94184294  0.62604186  0.51042268    -0.66580
Ni599      Ni  0.09387661  0.82751294  0.53332590     1.34870
C600        C  0.97729995  0.62214704  0.52901196     0.84520
O601        O  0.96557899  0.86928642  0.52631317    -0.79540
O602        O  0.04980962  0.88546238  0.54280789    -0.89820
C603        C  0.87222658  0.76599115  0.99268617     0.84090
O604        O  0.09675749  0.85325911  0.99645902    -0.68020
O605        O  0.97982108  0.64352786  0.96095419    -0.87310
C606        C  0.06298055  0.85663143  0.97707645     0.84920
C607        C  0.00208771  0.90049976  0.53768192     1.06490
H608        H  0.00106919  0.74437922  0.97149173     0.38290
O609        O  0.98716022  0.73387161  0.98934993    -1.09970
O610        O  0.00718642  0.66347145  0.53504438    -0.66620
Ni611      Ni  0.04595735  0.71218340  0.00926253     1.26350
O612        O  0.01351810  0.83836291  0.97939819    -0.66850
O613        O  0.05733343  0.65174825  0.98570689    -0.79140
C614        C  0.14670033  0.72543301  0.52769869     0.84300
O615        O  0.10564850  0.69418739  0.52984400    -0.66320
Ni616      Ni  0.93163880  0.68177985  0.98289392     1.27450
Ni617      Ni  0.97343276  0.79905651  0.50854925     1.26060
H618        H  0.02087621  0.76650757  0.54769175     0.38850
O619        O  0.38795518  0.68182117  0.51093405    -0.81110
O620        O  0.62461828  0.69535796  0.00518247    -0.65800
O621        O  0.48270883  0.70712534  0.53447743    -1.12400
C622        C  0.48198151  0.85217556  0.96790986     1.05780
O623        O  0.62495809  0.77845739  0.01888559    -0.79000
O624        O  0.55819272  0.86325252  0.52049490    -0.66580
Ni625      Ni  0.43297723  0.64763314  0.53624289     1.34870
C626        C  0.51433617  0.86637230  0.53372747     0.84520
O627        O  0.55971810  0.62123552  0.53830383    -0.79540
O628        O  0.48005507  0.61248187  0.56039024    -0.89820
C629        C  0.65009527  0.74118095  0.00827098     0.84090
O630        O  0.45519555  0.60447952  0.00692883    -0.68020
O631        O  0.53431382  0.85028070  0.96803352    -0.87310
C632        C  0.48483218  0.61771770  0.98654240     0.84920
C633        C  0.52479849  0.59283448  0.55338764     1.06490
H634        H  0.52989930  0.74662711  0.97896891     0.38290
O635        O  0.53433568  0.75744983  0.99758027    -1.09970
O636        O  0.48046840  0.82533543  0.53601747    -0.66620
Ni637      Ni  0.46475101  0.76655584  0.01013802     1.26350
O638        O  0.52326769  0.65386820  0.98786102    -0.66850
O639        O  0.45035761  0.82191369  0.98320158    -0.79140
C640        C  0.36544427  0.72381480  0.51760038     0.84300
O641        O  0.39255957  0.76678096  0.52233421    -0.66320
Ni642      Ni  0.58218696  0.81581323  0.99357113     1.27450
Ni643      Ni  0.55113706  0.69317866  0.51903248     1.26060
H644        H  0.48832451  0.72050453  0.55259132     0.38850
O645        O  0.20915626  0.86957713  0.85114357    -0.81110
O646        O  0.19804974  0.10245587  0.85347025    -0.65800
O647        O  0.22349682  0.96620309  0.82542622    -1.12400
C648        C  0.37239556  0.98005628  0.88780626     1.05780
O649        O  0.28181089  0.11350842  0.83759871    -0.79000
O650        O  0.37308403  0.05315197  0.83316452    -0.66580
Ni651      Ni  0.16942273  0.91077315  0.82585254     1.34870
C652        C  0.37638551  0.01142252  0.81916124     0.84520
O653        O  0.13275665  0.03372628  0.82115518    -0.79540
O654        O  0.12793607  0.95257309  0.80202164    -0.89820
C655        C  0.24124555  0.13246185  0.84961594     0.84090
O656        O  0.12381698  0.92876714  0.85536277    -0.68020
O657        O  0.36820613  0.03136791  0.88661608    -0.87310
C658        C  0.13459645  0.95954725  0.87482937     0.84920
C659        C  0.10759391  0.99746349  0.80669023     1.06490
H660        H  0.26095480  0.01649240  0.87962021     0.38290
O661        O  0.27084180  0.02206553  0.86068161    -1.09970
O662        O  0.33801298  0.97511878  0.81950435    -0.66620
Ni663      Ni  0.28550811  0.95512123  0.84819049     1.26350
O664        O  0.16740201  0.00054456  0.87225917    -0.66850
O665        O  0.34509977  0.94699953  0.87296947    -0.79140
C666        C  0.25589538  0.85329076  0.84586328     0.84300
O667        O  0.29264716  0.88546515  0.83672968    -0.66320
Ni668      Ni  0.32651936  0.07465851  0.86168877     1.27450
Ni669      Ni  0.20425833  0.03169051  0.84014524     1.26060
H670        H  0.23563073  0.97286844  0.80686861     0.38850
O671        O  0.32784896  0.61414609  0.85874800    -0.81110
O672        O  0.32906148  0.37975884  0.86845246    -0.65800
O673        O  0.31199619  0.51739779  0.83686609    -1.12400
C674        C  0.15716720  0.50492171  0.89709955     1.05780
O675        O  0.24745236  0.37355995  0.84936205    -0.79000
O676        O  0.15493301  0.43609481  0.84436907    -0.66580
Ni677      Ni  0.36866041  0.57064041  0.83579414     1.34870
C678        C  0.15281232  0.48189147  0.83242718     0.84520
O679        O  0.40193918  0.44715937  0.83714010    -0.79540
O680        O  0.41360267  0.52696267  0.81465706    -0.89820
C681        C  0.28643939  0.35131493  0.86175393     0.84090
O682        O  0.40895082  0.55117078  0.86694265    -0.68020
O683        O  0.16064730  0.45356009  0.89690257    -0.87310
C684        C  0.39694404  0.52232861  0.88782968     0.84920
C685        C  0.43125201  0.48150016  0.82225709     1.06490
H686        H  0.26750461  0.46698697  0.89168579     0.38290
O687        O  0.25958988  0.46248017  0.87260621    -1.09970
O688        O  0.19599786  0.51215106  0.82989085    -0.66620
Ni689      Ni  0.24809581  0.52991491  0.85854536     1.26350
O690        O  0.36244078  0.48240758  0.88660492    -0.66850
O691        O  0.18682741  0.53819272  0.88232915    -0.79140
C692        C  0.28160842  0.63110421  0.85257066     0.84300
O693        O  0.24337483  0.59971213  0.84527873    -0.66320
Ni694      Ni  0.20235888  0.41129580  0.87278154     1.27450
Ni695      Ni  0.32802171  0.45165368  0.85410341     1.26060
H696        H  0.30080206  0.51043546  0.81839523     0.38850
O697        O  0.82294424  0.38349000  0.75562438    -0.81110
O698        O  0.83059982  0.62596301  0.76260392    -0.65800
O699        O  0.81349970  0.47732277  0.78132574    -1.12400
C700        C  0.68247295  0.48812606  0.70953522     1.05780
O701        O  0.74129093  0.61745919  0.77092845    -0.79000
O702        O  0.65416497  0.54552919  0.76130492    -0.66580
Ni703      Ni  0.86810602  0.42669843  0.77847657     1.34870
C704        C  0.65261569  0.50588622  0.77810113     0.84520
O705        O  0.89818578  0.55629478  0.79339359    -0.79540
O706        O  0.91741989  0.46863790  0.79996547    -0.89820
C707        C  0.78395605  0.64685946  0.76584216     0.84090
O708        O  0.90315351  0.45304745  0.74635622    -0.68020
O709        O  0.68936239  0.53944954  0.70964109    -0.87310
C710        C  0.90429466  0.49647201  0.73246281     0.84920
C711        C  0.92924690  0.51871952  0.80244177     1.06490
H712        H  0.78631919  0.53336234  0.72760413     0.38290
O713        O  0.77093309  0.53587110  0.74560373    -1.09970
O714        O  0.69640673  0.48184740  0.78361715    -0.66620
Ni715      Ni  0.75281395  0.46648657  0.75677391     1.26350
O716        O  0.87888178  0.53779391  0.73937283    -0.66850
O717        O  0.69781475  0.45759786  0.72928803    -0.79140
C718        C  0.77698080  0.36499894  0.76382089     0.84300
O719        O  0.73972725  0.39601254  0.76855190    -0.66320
Ni720      Ni  0.71327347  0.58076443  0.74044101     1.27450
Ni721      Ni  0.83110832  0.54969012  0.77050097     1.26060
H722        H  0.80018063  0.47649408  0.79986155     0.38850
O723        O  0.70202242  0.12262280  0.77816777    -0.81110
O724        O  0.69783198  0.89214268  0.74088050    -0.65800
O725        O  0.72104672  0.01646299  0.78303915    -1.12400
C726        C  0.86173899  0.05650158  0.71696794     1.05780
O727        O  0.78855485  0.88478460  0.74428564    -0.79000
O728        O  0.87079954  0.95675916  0.75420313    -0.66580
Ni729      Ni  0.66555873  0.06096605  0.79272023     1.34870
C730        C  0.87673257  0.98487010  0.77534811     0.84520
O731        O  0.62702308  0.93910341  0.77687807    -0.79540
O732        O  0.62972371  0.99934186  0.80859379    -0.89820
C733        C  0.74006532  0.86429598  0.74492494     0.84090
O734        O  0.62530545  0.06030000  0.75827500    -0.68020
O735        O  0.85018240  0.00966043  0.70790374    -0.87310
C736        C  0.63231046  0.03845396  0.73533387     0.84920
C737        C  0.60201720  0.96786103  0.79397514     1.06490
H738        H  0.75139791  0.00287917  0.72424265     0.38290
O739        O  0.76463261  0.98655394  0.74083196    -1.09970
O740        O  0.83798967  0.01306818  0.78394941    -0.66620
Ni741      Ni  0.78131316  0.04623767  0.76177849     1.26350
O742        O  0.66095407  0.99724323  0.73339949    -0.66850
O743        O  0.83928443  0.07482025  0.73816769    -0.79140
C744        C  0.75083529  0.13993720  0.78116445     0.84300
O745        O  0.78944902  0.10815806  0.78307405    -0.66320
Ni746      Ni  0.81821875  0.94685658  0.72615794     1.27450
Ni747      Ni  0.70070876  0.95768816  0.76048128     1.26060
H748        H  0.73565354  0.00165171  0.79972727     0.38850
O749        O  0.13607756  0.30672514  0.59435947    -0.81110
O750        O  0.89201930  0.33019866  0.58863922    -0.65800
O751        O  0.03325956  0.29855871  0.61419831    -1.12400
C752        C  0.99591094  0.12782072  0.56988008     1.05780
O753        O  0.87699594  0.25258395  0.60726446    -0.79000
O754        O  0.92993249  0.17324364  0.62380450    -0.66580
Ni755      Ni  0.09037248  0.35094066  0.61599300     1.34870
C756        C  0.97219820  0.17785913  0.63827196     0.84520
O757        O  0.96046128  0.37863718  0.62478144    -0.79540
O758        O  0.04658642  0.39408713  0.63928489    -0.89820
C759        C  0.85938339  0.29031301  0.59321289     0.84090
O760        O  0.07075361  0.39887021  0.58621634    -0.68020
O761        O  0.94660983  0.14146992  0.57120394    -0.87310
C762        C  0.02708588  0.40399796  0.57251131     0.84920
C763        C  0.99539033  0.40316292  0.63988435     1.06490
H764        H  0.97202765  0.25883812  0.56241911     0.38290
O765        O  0.96962212  0.25065628  0.58173021    -1.09970
O766        O  0.01747369  0.19690939  0.62917031    -0.66620
Ni767      Ni  0.03882108  0.23138708  0.59491098     1.26350
O768        O  0.98996479  0.36591508  0.57225565    -0.66850
O769        O  0.03663145  0.15945546  0.57735771    -0.79140
C770        C  0.14857646  0.25960517  0.60291647     0.84300
O771        O  0.11181603  0.22213396  0.60637512    -0.66320
Ni772      Ni  0.91159658  0.19893154  0.58862304     1.27450
Ni773      Ni  0.96408374  0.31729692  0.60183144     1.26060
H774        H  0.02742594  0.28929904  0.63321780     0.38850
O775        O  0.64417080  0.19916405  0.56674874    -0.81110
O776        O  0.40459289  0.17887423  0.61798987    -0.65800
O777        O  0.53563235  0.20286921  0.57584629    -1.12400
C778        C  0.56628561  0.33968998  0.64201110     1.05780
O779        O  0.39955814  0.26671393  0.61065833    -0.79000
O780        O  0.47175683  0.35260704  0.60602652    -0.66580
Ni781      Ni  0.58648784  0.14746867  0.57524866     1.34870
C782        C  0.49942126  0.36050323  0.58454232     0.84520
O783        O  0.45242745  0.11915283  0.57762752    -0.79540
O784        O  0.53521188  0.08786087  0.58151106    -0.89820
C785        C  0.37624025  0.22104160  0.61620597     0.84090
O786        O  0.59778517  0.15026852  0.61387761    -0.68020
O787        O  0.51869046  0.32625663  0.65156224    -0.87310
C788        C  0.56097989  0.13424839  0.63108426     0.84920
C789        C  0.48550449  0.08081044  0.57528295     1.06490
H790        H  0.51829082  0.23014312  0.63506866     0.38290
O791        O  0.50209215  0.24410724  0.61863604    -1.09970
O792        O  0.52450159  0.32134530  0.57439777    -0.66620
Ni793      Ni  0.56096992  0.26554040  0.59625509     1.26350
O794        O  0.50985961  0.13861266  0.62584866    -0.66850
O795        O  0.58551982  0.32221014  0.61983808    -0.79140
C796        C  0.65322415  0.24990413  0.56405746     0.84300
O797        O  0.62086312  0.28322815  0.57304928    -0.66320
Ni798      Ni  0.45796931  0.29558182  0.63177324     1.27450
Ni799      Ni  0.47349104  0.18402557  0.59825855     1.26060
H800        H  0.52459679  0.21316889  0.55765026     0.38850
C801        C  0.22410637  0.19565586  0.60386422    -0.05990
C802        C  0.20610570  0.24753171  0.60910560    -0.00070
C803        C  0.24204785  0.28499794  0.62201798    -0.08640
C804        C  0.29558415  0.27054896  0.62721884    -0.06020
C805        C  0.31576282  0.22150859  0.61879716    -0.00080
C806        C  0.27875726  0.18196889  0.60836452    -0.08550
C807        C  0.29689256  0.12653900  0.60146592     0.61830
H808        H  0.19547249  0.16647974  0.59516934     0.12520
H809        H  0.32371223  0.29964115  0.63636397     0.12540
C810        C  0.22482632  0.34033267  0.63021388     0.62060
F811        F  0.25364295  0.09318986  0.59319144    -0.23100
F812        F  0.31981468  0.10279887  0.62422397    -0.20430
F813        F  0.33490997  0.13069890  0.58063313    -0.20110
F814        F  0.17767702  0.33528474  0.64572999    -0.20160
F815        F  0.21593719  0.37187316  0.60719338    -0.20480
F816        F  0.26436921  0.36703694  0.64553651    -0.23160
C817        C  0.77990810  0.32829397  0.56991699    -0.05990
C818        C  0.80728850  0.28275225  0.57899831    -0.00070
C819        C  0.78547143  0.23045975  0.57237820    -0.08640
C820        C  0.74442867  0.22815927  0.55298248    -0.06020
C821        C  0.70737419  0.26882729  0.55340090    -0.00080
C822        C  0.72811879  0.32174809  0.55797882    -0.08550
C823        C  0.69661093  0.37068033  0.55077269     0.61830
H824        H  0.79680550  0.36838156  0.57386221     0.12520
H825        H  0.73081918  0.18905635  0.54563304     0.12540
C826        C  0.79388986  0.17843017  0.58883317     0.62060
F827        F  0.72975282  0.40755487  0.53612521    -0.23100
F828        F  0.67939830  0.39411782  0.57431940    -0.20430
F829        F  0.65187299  0.35716034  0.53484747    -0.20110
F830        F  0.80025811  0.18797102  0.61628397    -0.20160
F831        F  0.83777379  0.15256412  0.57887573    -0.20480
F832        F  0.74877445  0.14306861  0.58702452    -0.23160
C833        C  0.62780507  0.04285579  0.68437186    -0.05990
C834        C  0.60901486  0.06250134  0.70924511    -0.00070
C835        C  0.57209326  0.10540407  0.70780772    -0.08640
C836        C  0.55734966  0.12718831  0.68199537    -0.06020
C837        C  0.57786053  0.10835913  0.65751504    -0.00080
C838        C  0.61282991  0.06444630  0.65872902    -0.08550
C839        C  0.63296973  0.03872672  0.63306339     0.61830
H840        H  0.65554656  0.01032355  0.68499007     0.12520
H841        H  0.52996825  0.16005396  0.68067142     0.12540
C842        C  0.54662707  0.12765723  0.73301007     0.62060
F843        F  0.66691036  0.07483326  0.61847351    -0.23100
F844        F  0.66205960  0.99345052  0.63884365    -0.20430
F845        F  0.58893688  0.02303098  0.61716718    -0.20110
F846        F  0.58636126  0.15217868  0.74896988    -0.20160
F847        F  0.51984928  0.08605276  0.74744480    -0.20480
F848        F  0.50878016  0.16562791  0.72671298    -0.23160
C849        C  0.89713086  0.14732467  0.70156960    -0.05990
C850        C  0.90304391  0.09140336  0.70208502    -0.00070
C851        C  0.94870274  0.07059910  0.68859545    -0.08640
C852        C  0.98130243  0.10544182  0.67184147    -0.06020
C853        C  0.96665943  0.15802392  0.66656606    -0.00080
C854        C  0.92904883  0.18130419  0.68398800    -0.08550
C855        C  0.92377719  0.24176867  0.68399494     0.61830
H856        H  0.86527254  0.16388596  0.71363831     0.12520
H857        H  0.01437285  0.09014714  0.66024506     0.12540
C858        C  0.96199498  0.01179807  0.69043482     0.62060
F859        F  0.88879482  0.25685864  0.70428456    -0.23100
F860        F  0.90417218  0.26002841  0.65933608    -0.20430
F861        F  0.97454652  0.26647011  0.68843957    -0.20110
F862        F  0.92671758  0.98192073  0.67419385    -0.20160
F863        F  0.95711406  0.99341533  0.71698890    -0.20480
F864        F  0.01488144  0.00394730  0.68206338    -0.23160
C865        C  0.58003673  0.43164579  0.65825826    -0.05990
C866        C  0.59978169  0.37999181  0.65638063     0.00170
C867        C  0.65142880  0.36886320  0.66693544    -0.08640
C868        C  0.67972240  0.40922656  0.68124771    -0.06020
C869        C  0.65739790  0.45939725  0.68613819    -0.00080
C870        C  0.60849218  0.47267123  0.67228084    -0.08550
C871        C  0.58339296  0.52744283  0.67040705     0.61830
H872        H  0.54175540  0.44015657  0.64839227     0.12520
H873        H  0.71870296  0.40055023  0.69028745     0.12540
C874        C  0.67507615  0.31375677  0.66443483     0.62060
F875        F  0.57969943  0.54295726  0.64323233    -0.23100
F876        F  0.61247985  0.56776081  0.68335370    -0.20430
F877        F  0.53120568  0.52348627  0.68122272    -0.20110
F878        F  0.68552828  0.30396621  0.63739149    -0.20160
F879        F  0.63840101  0.27441609  0.67477254    -0.20480
F880        F  0.72350173  0.30991384  0.67862579    -0.23160
C881        C  0.90280987  0.48930848  0.68261127    -0.05990
C882        C  0.93408865  0.49431179  0.70627818    -0.00070
C883        C  0.98902186  0.47924824  0.70578942    -0.08640
C884        C  0.00861344  0.45309482  0.68292556    -0.06020
C885        C  0.97515081  0.44157600  0.66038042    -0.00080
C886        C  0.92245855  0.46385227  0.65940723    -0.08550
C887        C  0.88580522  0.46006223  0.63460580     0.61830
H888        H  0.86082100  0.50095537  0.68329678     0.12520
H889        H  0.04953193  0.43863262  0.68337275     0.12540
C890        C  0.02673200  0.49120214  0.72949023     0.62060
F891        F  0.84349753  0.49485890  0.63598590    -0.23100
F892        F  0.86314634  0.40836070  0.63269678    -0.20430
F893        F  0.91563552  0.47392384  0.61138633    -0.20110
F894        F  0.00990915  0.46192807  0.75253978    -0.20160
F895        F  0.02606836  0.54548194  0.73453725    -0.20480
F896        F  0.08001601  0.47896056  0.72392913    -0.23160
C897        C  0.73595526  0.71514505  0.74014151    -0.05990
C898        C  0.77457052  0.70344766  0.76041521    -0.00070
C899        C  0.79240368  0.74310025  0.77858871    -0.08640
C900        C  0.77232910  0.79450956  0.77521545    -0.06020
C901        C  0.73738046  0.80757670  0.75347323    -0.00080
C902        C  0.71725429  0.76720554  0.73619036    -0.08550
C903        C  0.67756574  0.77963879  0.71352817     0.61830
H904        H  0.72074212  0.68298522  0.72733529     0.12520
H905        H  0.78721952  0.82636222  0.78830587     0.12540
C906        C  0.83252838  0.73095693  0.80116429     0.62060
F907        F  0.66127289  0.73393538  0.69965343    -0.23100
F908        F  0.70169497  0.81640141  0.69506912    -0.20430
F909        F  0.63161884  0.80113239  0.72445881    -0.20110
F910        F  0.88041744  0.71418714  0.78994906    -0.20160
F911        F  0.81058078  0.69065350  0.81837280    -0.20480
F912        F  0.84510498  0.77570845  0.81652291    -0.23160
C913        C  0.81421899  0.28087520  0.77747011    -0.05990
C914        C  0.76867993  0.30827868  0.76864747    -0.00070
C915        C  0.71753922  0.28154136  0.76514881    -0.08640
C916        C  0.71452841  0.22672954  0.77006542    -0.06020
C917        C  0.76023086  0.19813378  0.77846682    -0.00080
C918        C  0.81100158  0.22578908  0.78283001    -0.08550
C919        C  0.86074615  0.19905904  0.79406333     0.61830
H920        H  0.85246998  0.30340712  0.78055441     0.12520
H921        H  0.67540970  0.20603575  0.76711909     0.12540
C922        C  0.66647938  0.30958224  0.75588378     0.62060
F923        F  0.90369055  0.23573767  0.79878220    -0.23100
F924        F  0.87894622  0.16252123  0.77577495    -0.20430
F925        F  0.84701419  0.17378826  0.81866750    -0.20110
F926        F  0.67757658  0.33983252  0.73241246    -0.20160
F927        F  0.64913813  0.34249067  0.77612608    -0.20480
F928        F  0.62360960  0.27344955  0.75020219    -0.23160
C929        C  0.49843361  0.46645329  0.78553716    -0.05990
C930        C  0.48902105  0.47149793  0.81340756    -0.00070
C931        C  0.53563940  0.48061843  0.83043613    -0.08640
C932        C  0.58869289  0.48860813  0.81861958    -0.06020
C933        C  0.59736726  0.48758721  0.79036211    -0.00080
C934        C  0.55121334  0.47326853  0.77382244    -0.08550
C935        C  0.55708315  0.46494545  0.74364011     0.61830
H936        H  0.46315316  0.45967507  0.77264376     0.12520
H937        H  0.62332568  0.49918293  0.83136248     0.12540
C938        C  0.52972472  0.48799943  0.86072743     0.62060
F939        F  0.50837686  0.44811679  0.73166848    -0.23100
F940        F  0.59404045  0.42579121  0.73952222    -0.20430
F941        F  0.57457084  0.51272386  0.73100487    -0.20110
F942        F  0.49118082  0.45122982  0.87159303    -0.20160
F943        F  0.51453151  0.53972982  0.86527194    -0.20480
F944        F  0.57839333  0.48037624  0.87418906    -0.23160
C945        C  0.05312607  0.48353288  0.84257953    -0.05990
C946        C  0.09632461  0.50130226  0.82505052    -0.00070
C947        C  0.08357041  0.53861639  0.80367452    -0.08640
C948        C  0.02784711  0.55135257  0.79912384    -0.06020
C949        C  0.98445654  0.52916825  0.81540055    -0.00080
C950        C  0.99867999  0.49801445  0.83871957    -0.08550
C951        C  0.95700034  0.47734498  0.85978665     0.61830
H952        H  0.06190432  0.45796260  0.86008460     0.12520
H953        H  0.01728499  0.57595664  0.78164260     0.12540
C954        C  0.12774257  0.56260999  0.78482379     0.62060
F955        F  0.97515500  0.49085652  0.88548536    -0.23100
F956        F  0.95085904  0.42190233  0.85861661    -0.20430
F957        F  0.90664875  0.49917160  0.85598630    -0.20110
F958        F  0.15452962  0.52178881  0.77266776    -0.20160
F959        F  0.16469527  0.59392584  0.79938245    -0.20480
F960        F  0.10668661  0.59509407  0.76450503    -0.23160
C961        C  0.01139972  0.02639754  0.81332666    -0.05990
C962        C  0.04994768  0.00211148  0.79683805    -0.00070
C963        C  0.02996419  0.97000876  0.77512302    -0.08640
C964        C  0.97360490  0.96043617  0.77220214    -0.06020
C965        C  0.93436875  0.98741070  0.78704236    -0.00080
C966        C  0.95402338  0.01980607  0.80880609    -0.08550
C967        C  0.91513070  0.04469565  0.82816475     0.61830
H968        H  0.02651009  0.04884257  0.83054610     0.12520
H969        H  0.96026339  0.93193550  0.75707233     0.12540
C970        C  0.06720145  0.94376827  0.75492473     0.62060
F971        F  0.94209147  0.06984606  0.84941945    -0.23100
F972        F  0.87932108  0.00525815  0.83908332    -0.20430
F973        F  0.88633383  0.08263317  0.81430778    -0.20110
F974        F  0.08309031  0.89484930  0.76548214    -0.20160
F975        F  0.11270589  0.97707163  0.74907871    -0.20480
F976        F  0.04098485  0.93399337  0.73052054    -0.23160
C977        C  0.52648781  0.02926393  0.79916802    -0.05990
C978        C  0.54115938  0.97606825  0.79451216    -0.00070
C979        C  0.49847340  0.93619777  0.79223003    -0.08640
C980        C  0.44357719  0.95023342  0.79739118    -0.06020
C981        C  0.43010502  0.00281836  0.80483326    -0.00080
C982        C  0.47256781  0.04383178  0.80345320    -0.08550
C983        C  0.46289505  0.10326486  0.80740643     0.61830
H984        H  0.55849800  0.06059057  0.80009925     0.12520
H985        H  0.41127601  0.91924546  0.79731696     0.12540
C986        C  0.51127116  0.87898856  0.78587174     0.62060
F987        F  0.50535457  0.13614843  0.79689645    -0.23100
F988        F  0.45877723  0.11350650  0.83486062    -0.20430
F989        F  0.41585623  0.11751445  0.79407589    -0.20110
F990        F  0.54579345  0.85901030  0.80552003    -0.20160
F991        F  0.53639115  0.87807345  0.76067696    -0.20480
F992        F  0.46463770  0.84556808  0.78523592    -0.23160
C993        C  0.30457001  0.20309025  0.86627441    -0.05990
C994        C  0.24983563  0.18553093  0.86170568    -0.00070
C995        C  0.20755227  0.22089885  0.86586381    -0.08640
C996        C  0.22248945  0.27477631  0.87043550    -0.06020
C997        C  0.27744994  0.29406839  0.86899208    -0.00080
C998        C  0.31948387  0.25750588  0.86926594    -0.08550
C999        C  0.37934676  0.27563778  0.87073726     0.61830
H1000       H  0.33634729  0.17445858  0.86511571     0.12520
H1001       H  0.19084270  0.30338803  0.87237271     0.12540
C1002       C  0.14758770  0.20343028  0.86357619     0.62060
F1003       F  0.41295783  0.23244880  0.87188699    -0.23100
F1004       F  0.38844661  0.30512973  0.89391078    -0.20430
F1005       F  0.39382726  0.30697115  0.84795242    -0.20110
F1006       F  0.13477181  0.16308899  0.88274223    -0.20160
F1007       F  0.13678778  0.18480189  0.83775894    -0.20480
F1008       F  0.11380669  0.24539957  0.86807535    -0.23160
C1009       C  0.32061944  0.72079698  0.84952951    -0.05990
C1010       C  0.27392581  0.68747078  0.85400430    -0.00070
C1011       C  0.22306424  0.70873485  0.85979371    -0.08640
C1012       C  0.21961594  0.76376351  0.85712362    -0.06020
C1013       C  0.26576281  0.79727545  0.85086418    -0.00080
C1014       C  0.31807842  0.77599174  0.84916100    -0.08550
C1015       C  0.37111358  0.80982056  0.84812202     0.61830
H1016       H  0.35949198  0.70322899  0.84593978     0.12520
H1017       H  0.18010091  0.78065450  0.85958013     0.12540
C1018       C  0.17346856  0.67502162  0.86988260     0.62060
F1019       F  0.41643138  0.77894475  0.85087543    -0.23100
F1020       F  0.37177671  0.84473539  0.86948314    -0.20430
F1021       F  0.37597676  0.83780401  0.82354646    -0.20110
F1022       F  0.18833517  0.64320613  0.89183710    -0.20160
F1023       F  0.15238411  0.64334179  0.84937929    -0.20480
F1024       F  0.13225979  0.70671688  0.87858679    -0.23160
C1025       C  0.46836248  0.92756794  0.56759887    -0.05990
C1026       C  0.50180348  0.92201566  0.54443103    -0.00070
C1027       C  0.52025607  0.97118791  0.53038523    -0.08640
C1028       C  0.50096994  0.02090724  0.53852485    -0.06020
C1029       C  0.47260121  0.02699819  0.56284273    -0.00080
C1030       C  0.45624263  0.97907295  0.57784458    -0.08550
C1031       C  0.42753112  0.98017757  0.60508272     0.61830
H1032       H  0.45403502  0.89147127  0.57874977     0.12520
H1033       H  0.51428822  0.05763096  0.52762233     0.12540
C1034       C  0.56277026  0.97380074  0.00763093     0.62060
F1035       F  0.37931472  0.94919682  0.60409321    -0.23100
F1036       F  0.41514231  0.03161361  0.61218646    -0.20430
F1037       F  0.46058259  0.95891259  0.62502401    -0.20110
F1038       F  0.54346701  0.94597550  0.98562572    -0.20160
F1039       F  0.61072865  0.95291082  0.01695566    -0.20480
F1040       F  0.57574108  0.02591373  0.99836784    -0.23160
C1041       C  0.54593679  0.43722380  0.55500094    -0.05990
C1042       C  0.50534995  0.41933138  0.57421038    -0.00070
C1043       C  0.47574315  0.46040709  0.58685635    -0.08640
C1044       C  0.49215765  0.51491663  0.58253894    -0.06020
C1045       C  0.52938620  0.53353062  0.56217412    -0.00080
C1046       C  0.55685475  0.49328121  0.54795869    -0.08550
C1047       C  0.59705419  0.50915802  0.02542113     0.61830
H1048       H  0.56850128  0.40692348  0.54517210     0.12520
H1049       H  0.47225321  0.54443988  0.59438885     0.12540
C1050       C  0.42454795  0.44889623  0.60423636     0.62060
F1051       F  0.62060349  0.46482372  0.01471390    -0.23100
F1052       F  0.63825640  0.54282099  0.03549071    -0.20430
F1053       F  0.57066030  0.53554433  0.00453658    -0.20110
F1054       F  0.43863059  0.43247348  0.63030282    -0.20160
F1055       F  0.39093301  0.40989251  0.59239628    -0.20480
F1056       F  0.39409899  0.49410928  0.60649087    -0.23160
C1057       C  0.45675720  0.53597969  0.96049789    -0.05990
C1058       C  0.47048269  0.59169066  0.96035762    -0.00070
C1059       C  0.46091933  0.62270594  0.93647647    -0.08640
C1060       C  0.43679065  0.59723102  0.91410494    -0.06020
C1061       C  0.42329241  0.54131391  0.91373316    -0.00080
C1062       C  0.43544225  0.50960471  0.93731651    -0.08550
C1063       C  0.42827397  0.44870867  0.93960313     0.61830
H1064       H  0.46340235  0.51251395  0.97901410     0.12520
H1065       H  0.42735834  0.62205498  0.89649170     0.12540
C1066       C  0.47397203  0.68308308  0.93468754     0.62060
F1067       F  0.47486811  0.42796332  0.95076305    -0.23100
F1068       F  0.41997794  0.42454617  0.91494496    -0.20430
F1069       F  0.38458882  0.43488654  0.95660391    -0.20110
F1070       F  0.52972416  0.69278034  0.93673953    -0.20160
F1071       F  0.44772240  0.70825704  0.95539310    -0.20480
F1072       F  0.45742407  0.70605663  0.91026763    -0.23160
C1073       C  0.38664058  0.95253566  0.93528978    -0.05990
C1074       C  0.40715823  0.95601569  0.90875493    -0.00070
C1075       C  0.45544469  0.93020682  0.90234596    -0.08640
C1076       C  0.47928008  0.89765743  0.92251914    -0.06020
C1077       C  0.45693496  0.89139117  0.94890151    -0.00080
C1078       C  0.41153760  0.92225962  0.95587159    -0.08550
C1079       C  0.38768824  0.92709318  0.98424131     0.61830
H1080       H  0.34999551  0.97337124  0.93995311     0.12520
H1081       H  0.51484247  0.87560391  0.91754010     0.12540
C1082       C  0.48172269  0.93772625  0.87444638     0.62060
F1083       F  0.33528337  0.90408637  0.98491814    -0.23100
F1084       F  0.38545667  0.98102346  0.99023532    -0.20430
F1085       F  0.41756105  0.90343998  0.50447529    -0.20110
F1086       F  0.49253654  0.99199007  0.86896086    -0.20160
F1087       F  0.44711467  0.91738572  0.85479155    -0.20480
F1088       F  0.53027730  0.91177787  0.87281911    -0.23160
C1089       C  0.04287472  0.55241515  0.54457534    -0.05990
C1090       C  0.98817085  0.56661573  0.54137361    -0.00070
C1091       C  0.94692536  0.52530553  0.54653255    -0.08640
C1092       C  0.96182962  0.47264993  0.55485911    -0.06020
C1093       C  0.01652010  0.45858468  0.55869773    -0.00080
C1094       C  0.05789648  0.49972155  0.55281703    -0.08550
C1095       C  0.11816568  0.48853100  0.55456817     0.61830
H1096       H  0.07447901  0.58315021  0.53998706     0.12520
H1097       H  0.92999599  0.44204702  0.55922723     0.12540
C1098       C  0.88689163  0.53687254  0.54420015     0.62060
F1099       F  0.15041315  0.52904234  0.54193143    -0.23100
F1100       F  0.12807136  0.44096258  0.54184610    -0.20430
F1101       F  0.13386602  0.48482865  0.58154106    -0.20110
F1102       F  0.87302324  0.54374024  0.51712268    -0.20160
F1103       F  0.87642784  0.58300567  0.55806178    -0.20480
F1104       F  0.85373005  0.49520485  0.55518191    -0.23160
C1105       C  0.00815423  0.97333202  0.57189194    -0.05990
C1106       C  0.99286129  0.95818200  0.54548324    -0.00070
C1107       C  0.98259818  0.00043301  0.52626583    -0.08640
C1108       C  0.98693108  0.05532981  0.53434939    -0.06020
C1109       C  0.00280425  0.07029917  0.56083516    -0.00080
C1110       C  0.01179973  0.02776493  0.57997410    -0.08550
C1111       C  0.01947235  0.03958116  0.60966897     0.61830
H1112       H  0.01684842  0.94150097  0.58648230     0.12520
H1113       H  0.97759163  0.08724256  0.51994291     0.12540
C1114       C  0.96948705  0.98768209  0.99697671     0.62060
F1115       F  0.02949383  0.99383130  0.62516151    -0.23100
F1116       F  0.97191344  0.06039706  0.61898052    -0.20430
F1117       F  0.06284978  0.07635235  0.61293532    -0.20110
F1118       F  0.92332892  0.95373327  0.99595075    -0.20160
F1119       F  0.01289969  0.96290696  0.98558354    -0.20480
F1120       F  0.96012280  0.03358655  0.98147500    -0.23160
C1121       C  0.08348944  0.55238450  0.95922785    -0.05990
C1122       C  0.05513775  0.59486309  0.94750201    -0.00070
C1123       C  0.05365731  0.60177177  0.91873856    -0.08640
C1124       C  0.08519628  0.56879311  0.90292057    -0.06020
C1125       C  0.11655712  0.52876207  0.91475739    -0.00080
C1126       C  0.11330099  0.51801082  0.94315470    -0.08550
C1127       C  0.14196557  0.47144229  0.95642275     0.61830
H1128       H  0.08237245  0.54666696  0.98116624     0.12520
H1129       H  0.08690001  0.57492130  0.88102065     0.12540
C1130       C  0.02095350  0.64495098  0.90471188     0.62060
F1131       F  0.13440219  0.46913324  0.98435288    -0.23100
F1132       F  0.19739877  0.47672560  0.95122608    -0.20430
F1133       F  0.12119320  0.42350055  0.94612702    -0.20110
F1134       F  0.03547873  0.69486824  0.91495897    -0.20160
F1135       F  0.96581792  0.63374223  0.90893795    -0.20480
F1136       F  0.02979144  0.64751518  0.87684670    -0.23160
C1137       C  0.04308987  0.90518706  0.93297052    -0.05990
C1138       C  0.08225626  0.88472110  0.95103877    -0.00070
C1139       C  0.13876475  0.89263739  0.94396441    -0.08640
C1140       C  0.15320593  0.92205826  0.91998653    -0.06020
C1141       C  0.11416955  0.94134034  0.90202606    -0.00080
C1142       C  0.05813961  0.93272730  0.90834530    -0.08550
C1143       C  0.01478218  0.95352753  0.88930440     0.61830
H1144       H  0.00030758  0.89925622  0.93817956     0.12520
H1145       H  0.19575739  0.92797376  0.91419866     0.12540
C1146       C  0.18442638  0.86818032  0.96043303     0.62060
F1147       F  0.96293564  0.94580430  0.90030176    -0.23100
F1148       F  0.01581820  0.92706167  0.86492316    -0.20430
F1149       F  0.02462952  0.00809517  0.88430876    -0.20110
F1150       F  0.17244606  0.81388957  0.96517125    -0.20160
F1151       F  0.19081413  0.89403780  0.48487763    -0.20480
F1152       F  0.23408482  0.87288213  0.94690618    -0.23160
C1153       C  0.78801831  0.81184495  0.49278470    -0.05990
C1154       C  0.81568272  0.76802289  0.98424912    -0.00070
C1155       C  0.78656322  0.72034015  0.97677011    -0.08640
C1156       C  0.73205407  0.71316936  0.98458528    -0.06020
C1157       C  0.70539459  0.75420787  0.99738122    -0.00080
C1158       C  0.73259584  0.80652437  0.49932669    -0.08550
C1159       C  0.70572688  0.85686592  0.50879611     0.61830
H1160       H  0.81154242  0.84848125  0.49726522     0.12520
H1161       H  0.71081069  0.67473318  0.98120950     0.12540
C1162       C  0.81292454  0.67508238  0.96236038     0.62060
F1163       F  0.74068027  0.90221003  0.50703921    -0.23100
F1164       F  0.68949814  0.85062998  0.53572002    -0.20430
F1165       F  0.66169209  0.86701368  0.99232855    -0.20110
F1166       F  0.82226824  0.63360566  0.98081338    -0.20160
F1167       F  0.86164215  0.69251499  0.95011510    -0.20480
F1168       F  0.77863058  0.65575612  0.94215314    -0.23160
C1169       C  0.28643425  0.70513109  0.54519995    -0.05990
C1170       C  0.30825267  0.72046311  0.51972506    -0.00070
C1171       C  0.27644381  0.72226767  0.99601904    -0.08640
C1172       C  0.22094928  0.71166601  0.99898841    -0.06020
C1173       C  0.19839314  0.70368892  0.52497756    -0.00080
C1174       C  0.23047433  0.69695109  0.54826251    -0.08550
C1175       C  0.20498106  0.68367215  0.57591873     0.61830
H1176       H  0.31329668  0.70093297  0.56255283     0.12520
H1177       H  0.19413643  0.71581800  0.98161378     0.12540
C1178       C  0.30095384  0.73755099  0.96827138     0.62060
F1179       F  0.24414162  0.67551944  0.59565631    -0.23100
F1180       F  0.17211106  0.63714490  0.57434190    -0.20430
F1181       F  0.17360254  0.72531905  0.58388641    -0.20110
F1182       F  0.33624500  0.69896717  0.96058809    -0.20160
F1183       F  0.32931268  0.78682481  0.96953203    -0.20480
F1184       F  0.26138396  0.74157438  0.94836733    -0.23160
loop_ 
_geom_bond_atom_site_label_1 
_geom_bond_atom_site_label_2 
_geom_bond_distance 
_geom_bond_site_symmetry_2 
_ccdc_geom_bond_type 
O1           Ni7   1.896       .  S
O1           C22   1.267       .  A
O2         Ni617   1.906       .  S
O2           C11   1.282       .  A
O3           Ni7   1.903       .  S
O3          Ni25   1.905   1_455  S
O3         Ni611   1.953       .  S
O3           H26   0.966       .  S
C4           O21   1.289       .  A
C4           O13   1.278   1_455  A
C4          C530   1.476       .  S
O5          Ni24   1.880       .  S
O5           C11   1.273       .  A
O6         Ni616   1.936   1_554  S
O6            C8   1.267       .  A
Ni7          O10   1.909       .  S
Ni7         O604   1.905   1_554  S
C8           O18   1.276   1_655  A
C8          C498   1.529       .  S
O9          Ni25   1.990       .  S
O9           C15   1.295   1_655  A
O10          C15   1.269       .  A
C11         C562   1.451       .  S
O12        Ni599   1.905       .  S
O12          C14   1.267       .  A
O13         Ni24   1.902       .  S
C14          O20   1.280       .  A
C14         C546   1.506       .  S
C15         C514   1.522   1_455  S
H16          O17   0.966   1_455  S
O17         Ni19   1.838   1_655  S
O17         Ni24   1.869       .  S
O17        Ni617   1.940       .  S
O18        Ni611   1.946       .  S
Ni19         O21   1.951       .  S
Ni19        O610   1.946       .  S
Ni19        O615   1.847       .  S
Ni19        O595   1.953       .  S
O20        Ni617   1.951   1_455  S
C22          O23   1.246       .  A
C22         C581   1.409       .  S
O23        Ni611   1.847       .  S
Ni24        O598   1.936       .  S
Ni25        O594   1.906   1_554  S
Ni25        O612   1.951   1_654  S
Ni25        O609   1.940   1_554  S
O27         Ni33   1.878       .  S
O27          C48   1.255       .  A
O28        Ni643   1.924       .  S
O28          C37   1.287       .  A
O29         Ni33   1.874       .  S
O29         Ni51   1.892       .  S
O29        Ni637   1.944       .  S
O29          H52   0.966       .  S
C30          O47   1.283       .  A
C30          O39   1.287       .  A
C30         C485   1.487       .  S
O31         Ni50   1.883       .  S
O31          C37   1.261       .  A
O32        Ni642   1.906   1_554  S
O32          C34   1.263       .  A
Ni33         O36   1.884       .  S
Ni33        O630   1.912       .  S
C34          O44   1.288       .  A
C34         C434   1.538       .  S
O35         Ni51   2.023       .  S
O35          C41   1.302       .  A
O36          C41   1.273       .  A
C37         C565   1.476       .  S
O38        Ni625   1.912       .  S
O38          C40   1.264       .  A
O39         Ni50   1.932       .  S
C40          O46   1.275       .  A
C40         C466   1.491       .  S
C41         C453   1.535       .  S
H42          O43   0.965       .  S
O43         Ni45   1.840       .  S
O43         Ni50   1.830       .  S
O43        Ni643   1.952       .  S
O44        Ni637   1.987       .  S
Ni45         O47   1.930       .  S
Ni45        O636   1.987       .  S
Ni45        O641   1.869       .  S
Ni45        O621   1.944       .  S
O46        Ni643   1.946       .  S
C48          O49   1.259       .  A
C48         C578   1.405       .  S
O49        Ni637   1.869       .  S
Ni50        O624   1.906       .  S
Ni51        O620   1.924       .  S
Ni51        O638   1.946   1_554  S
Ni51        O635   1.952   1_554  S
O53         Ni59   1.891       .  S
O53          C74   1.263       .  A
O54         Ni77   1.907       .  S
O54          C63   1.278       .  A
O55         Ni59   1.868       .  S
O55         Ni77   1.879   1_565  S
O55         Ni71   1.916       .  S
O55          H78   0.966       .  S
C56          O73   1.280       .  A
C56          O65   1.285   1_565  A
C56         C482   1.471       .  S
O57         Ni76   1.893       .  S
O57          C63   1.272       .  A
O58         Ni76   1.909       .  S
O58          C60   1.266       .  A
Ni59         O62   1.878       .  S
Ni59         O64   1.905       .  S
C60          O70   1.274   1_545  A
C60         C389   1.520       .  S
O61         Ni77   1.991       .  S
O61          C67   1.297   1_545  A
O62          C67   1.270       .  A
C63         C402   1.468       .  S
O64          C66   1.261       .  A
O65         Ni76   1.935       .  S
C66          O72   1.273   1_565  A
C66         C549   1.479       .  S
C67         C370   1.504   1_565  S
H68          O69   0.966       .  S
O69         Ni77   1.943       .  S
O69         Ni71   1.841   1_545  S
O69         Ni76   1.849       .  S
O70         Ni71   1.947       .  S
Ni71         O75   1.852       .  S
Ni71         O73   1.919       .  S
O72         Ni77   1.942       .  S
C74          O75   1.252       .  A
C74         C421   1.440       .  S
O79         Ni85   1.899       .  S
O79         C100   1.263       .  A
O80        Ni103   1.906       .  S
O80          C89   1.283       .  A
O81         Ni85   1.875       .  S
O81        Ni103   1.880       .  S
O81         Ni97   1.935       .  S
O81         H104   0.966       .  S
C82          O99   1.285       .  A
C82          O91   1.285       .  A
C82         C533   1.475       .  S
O83        Ni102   1.891       .  S
O83          C89   1.275       .  A
O84        Ni102   1.926       .  S
O84          C86   1.271       .  A
Ni85         O88   1.908       .  S
Ni85         O90   1.888       .  S
C86          O96   1.275       .  A
C86         C354   1.530       .  S
O87        Ni103   2.003       .  S
O87          C93   1.300       .  A
O88          C93   1.277       .  A
C89         C405   1.465       .  S
O90          C92   1.263       .  A
O91        Ni102   1.928       .  S
C92          O98   1.277       .  A
C92         C469   1.505       .  S
C93         C338   1.515       .  S
H94          O95   0.966       .  S
O95        Ni103   1.941       .  S
O95         Ni97   1.832       .  S
O95        Ni102   1.851       .  S
O96         Ni97   1.949       .  S
Ni97        O101   1.847       .  S
Ni97         O99   1.924       .  S
O98        Ni103   1.964       .  S
C100        O101   1.251       .  A
C100        C418   1.427       .  S
O105       Ni111   1.897       .  S
O105        C126   1.259       .  A
O106       Ni129   1.927       .  S
O106        C115   1.290       .  A
O107       Ni111   1.888       .  S
O107       Ni129   1.894       .  S
O107       Ni123   1.932       .  S
O107        H130   0.966       .  S
C108        O125   1.284       .  A
C108        O117   1.280       .  A
C108        C277   1.488       .  S
O109       Ni128   1.888       .  S
O109        C115   1.269       .  A
O110       Ni128   1.937       .  S
O110        C112   1.268       .  A
Ni111       O114   1.900       .  S
Ni111       O116   1.883       .  S
C112        O122   1.280       .  A
C112        C341   1.527       .  S
O113       Ni129   1.998       .  S
O113        C119   1.303       .  A
O114        C119   1.275       .  A
C115        C306   1.455       .  S
O116        C118   1.262       .  A
O117       Ni128   1.928       .  S
C118        O124   1.280       .  A
C118        C290   1.482       .  S
C119        C357   1.512       .  S
H120        O121   0.965       .  S
O121       Ni129   1.943       .  S
O121       Ni123   1.832       .  S
O121       Ni128   1.857       .  S
O122       Ni123   1.967       .  S
Ni123       O127   1.845       .  S
Ni123       O125   1.920       .  S
O124       Ni129   1.962       .  S
C126        O127   1.249       .  A
C126        C322   1.430       .  S
O131       Ni137   1.864       .  S
O131        C152   1.264       .  A
O132       Ni155   1.914       .  S
O132        C141   1.286       .  A
O133       Ni137   1.863       .  S
O133       Ni155   1.906   1_545  S
O133       Ni149   1.918       .  S
O133        H156   0.966       .  S
C134        O151   1.281       .  A
C134        O143   1.278       .  A
C134        C258   1.482       .  S
O135       Ni154   1.878       .  S
O135        C141   1.272       .  A
O136       Ni154   1.902       .  S
O136        C138   1.272       .  A
Ni137       O140   1.882   1_545  S
Ni137       O142   1.961       .  S
C138        O148   1.285   1_565  A
C138        C373   1.527       .  S
O139       Ni155   2.007       .  S
O139        C145   1.290       .  A
O140        C145   1.254       .  A
C141        C309   1.460       .  S
O142        C144   1.279       .  A
O143       Ni154   1.916   1_545  S
C144        O150   1.275   1_545  A
C144        C242   1.524       .  S
C145        C386   1.517       .  S
H146        O147   0.965   1_545  S
O147       Ni155   1.939       .  S
O147       Ni149   1.859   1_565  S
O147       Ni154   1.838       .  S
O148       Ni149   1.966       .  S
Ni149       O153   1.888       .  S
Ni149       O151   1.931       .  S
O150       Ni155   1.928       .  S
C152        O153   1.264       .  A
C152        C325   1.458       .  S
O157       Ni163   1.941       .  S
O157        C178   1.286       .  A
O158       Ni181   1.922       .  S
O158        C167   1.261       .  A
O159       Ni163   1.872       .  S
O159       Ni181   1.879   1_455  S
O159       Ni175   1.952       .  S
O159        H182   0.965       .  S
C160        O177   1.302   1_655  A
C160        O169   1.274       .  A
C160        C517   1.526   1_655  S
O161       Ni180   1.873       .  S
O161        C167   1.245       .  A
O162       Ni180   1.889       .  S
O162        C164   1.261       .  A
Ni163       O166   1.945       .  S
Ni163       O168   1.939       .  S
C164        O174   1.263   1_655  A
C164        C261   1.467       .  S
O165       Ni181   1.926       .  S
O165        C171   1.278       .  A
O166        C171   1.287   1_455  A
C167        C226   1.464       .  S
O168        C170   1.276       .  A
O169       Ni180   1.921       .  S
C170        O176   1.283   1_455  A
C170        C501   1.535       .  S
C171        C293   1.505       .  S
H172        O173   0.966       .  S
O173       Ni181   1.962       .  S
O173       Ni175   1.896   1_655  S
O173       Ni180   1.898       .  S
O174       Ni175   1.929       .  S
Ni175       O179   1.901       .  S
Ni175       O177   2.005       .  S
O176       Ni181   1.952       .  S
C178        O179   1.274       .  A
C178        C210   1.487       .  S
O183       Ni189   1.905       .  S
O183        C204   1.275       .  A
O184       Ni207   1.944       .  S
O184        C193   1.287       .  A
O185       Ni189   1.902       .  S
O185       Ni207   1.912       .  S
O185       Ni201   1.953       .  S
O185        H208   0.966       .  S
C186        O203   1.281       .  A
C186        O195   1.284       .  A
C186        C274   1.463       .  S
O187       Ni206   1.896       .  S
O187        C193   1.271       .  A
O188       Ni206   1.894       .  S
O188        C190   1.260       .  A
Ni189       O192   1.917       .  S
Ni189       O194   1.921       .  S
C190        O200   1.287       .  A
C190        C450   1.537       .  S
O191       Ni207   1.977       .  S
O191        C197   1.288       .  A
O192        C197   1.263       .  A
C193        C213   1.490       .  S
O194        C196   1.279       .  A
O195       Ni206   1.920       .  S
C196        O202   1.290       .  A
C196        C245   1.502       .  S
C197        C437   1.507       .  S
H198        O199   0.964       .  S
O199       Ni207   1.927       .  S
O199       Ni201   1.863       .  S
O199       Ni206   1.843       .  S
O200       Ni201   1.980       .  S
Ni201       O205   1.887       .  S
Ni201       O203   1.924       .  S
O202       Ni207   1.982       .  S
C204        O205   1.262       .  A
C204        C229   1.479       .  S
C209        C210   1.413       .  A
C209        C214   1.415       .  A
C209        H216   1.083       .  S
C210        C211   1.416       .  A
C211        C212   1.400       .  A
C211        C218   1.522       .  S
C212        C213   1.409       .  A
C212        H217   1.083       .  S
C213        C214   1.414       .  A
C214        C215   1.515       .  S
C215        F219   1.384       .  S
C215        F220   1.383       .  S
C215        F221   1.382       .  S
C218        F222   1.383       .  S
C218        F223   1.383       .  S
C218        F224   1.385       .  S
C225        C226   1.407       .  A
C225        C230   1.405       .  A
C225        H232   1.084       .  S
C226        C227   1.429       .  A
C227        C228   1.388       .  A
C227        C234   1.530       .  S
C228        C229   1.392       .  A
C228        H233   1.085       .  S
C229        C230   1.413       .  A
C230        C231   1.507       .  S
C231        F235   1.383       .  S
C231        F236   1.383       .  S
C231        F237   1.383       .  S
C234        F238   1.383       .  S
C234        F239   1.375       .  S
C234        F240   1.386       .  S
C241        C242   1.412       .  A
C241        C246   1.413       .  A
C241        H248   1.081       .  S
C242        C243   1.432       .  A
C243        C244   1.420       .  A
C243        C250   1.515       .  S
C244        C245   1.403       .  A
C244        H249   1.083       .  S
C245        C246   1.420       .  A
C246        C247   1.521       .  S
C247        F251   1.381       .  S
C247        F252   1.385   1_545  S
C247        F253   1.382       .  S
C250        F254   1.382       .  S
C250        F255   1.379       .  S
C250        F256   1.385       .  S
C257        C258   1.405       .  A
C257        C262   1.404       .  A
C257        H264   1.083       .  S
C258        C259   1.425       .  A
C259        C260   1.401       .  A
C259        C266   1.514       .  S
C260        C261   1.391       .  A
C260        H265   1.080   1_655  S
C261        C262   1.411       .  A
C262        C263   1.516       .  S
C263        F267   1.385       .  S
C263        F268   1.378       .  S
C263        F269   1.383       .  S
C266        F270   1.383   1_545  S
C266        F271   1.374   1_545  S
C266        F272   1.384   1_655  S
C273        C274   1.399       .  A
C273        C278   1.406       .  A
C273        H280   1.085       .  S
C274        C275   1.407       .  A
C275        C276   1.399       .  A
C275        C282   1.521       .  S
C276        C277   1.412       .  A
C276        H281   1.084       .  S
C277        C278   1.428       .  A
C278        C279   1.522       .  S
C279        F283   1.384       .  S
C279        F284   1.374       .  S
C279        F285   1.384       .  S
C282        F286   1.383       .  S
C282        F287   1.384       .  S
C282        F288   1.385       .  S
C289        C290   1.399       .  A
C289        C294   1.413       .  A
C289        H296   1.084       .  S
C290        C291   1.416       .  A
C291        C292   1.408   1_655  A
C291        C298   1.515   1_655  S
C292        C293   1.407   1_455  A
C292        H297   1.082       .  S
C293        C294   1.431       .  A
C294        C295   1.518       .  S
C295        F299   1.385       .  S
C295        F300   1.383       .  S
C295        F301   1.381       .  S
C298        F302   1.382       .  S
C298        F303   1.380       .  S
C298        F304   1.384       .  S
C305        C306   1.410       .  A
C305        C310   1.403       .  A
C305        H312   1.084       .  S
C306        C307   1.403       .  A
C307        C308   1.398       .  A
C307        C314   1.518       .  S
C308        C309   1.412       .  A
C308        H313   1.084       .  S
C309        C310   1.405       .  A
C310        C311   1.516       .  S
C311        F315   1.384       .  S
C311        F316   1.383       .  S
C311        F317   1.383       .  S
C314        F318   1.383       .  S
C314        F319   1.383       .  S
C314        F320   1.384       .  S
C321        C322   1.399       .  A
C321        C326   1.387       .  A
C321        H328   1.083       .  S
C322        C323   1.405       .  A
C323        C324   1.377       .  A
C323        C330   1.526       .  S
C324        C325   1.412       .  A
C324        H329   1.080       .  S
C325        C326   1.414       .  A
C326        C327   1.515       .  S
C327        F331   1.385       .  S
C327        F332   1.383       .  S
C327        F333   1.382       .  S
C330        F334   1.380       .  S
C330        F335   1.383       .  S
C330        F336   1.385       .  S
C337        C338   1.398       .  A
C337        C342   1.417       .  A
C337        H344   1.083       .  S
C338        C339   1.431       .  A
C339        C340   1.428       .  A
C339        C346   1.512       .  S
C340        C341   1.405       .  A
C340        H345   1.083       .  S
C341        C342   1.432       .  A
C342        C343   1.510       .  S
C343        F347   1.385       .  S
C343        F348   1.380       .  S
C343        F349   1.377       .  S
C346        F350   1.381       .  S
C346        F351   1.380       .  S
C346        F352   1.384       .  S
C353        C354   1.412       .  A
C353        C358   1.412   1_455  A
C353        H360   1.084       .  S
C354        C355   1.428       .  A
C355        C356   1.434       .  A
C355        C362   1.515       .  S
C356        C357   1.413   1_455  A
C356        H361   1.080       .  S
C357        C358   1.420       .  A
C358        C359   1.517       .  S
C359        F363   1.384       .  S
C359        F364   1.383       .  S
C359        F365   1.383       .  S
C362        F366   1.383       .  S
C362        F367   1.381       .  S
C362        F368   1.384       .  S
C369        C370   1.411       .  A
C369        C374   1.428   1_455  A
C369        H376   1.082       .  S
C370        C371   1.423   1_545  A
C371        C372   1.400   1_455  A
C371        C378   1.527       .  S
C372        C373   1.411       .  A
C372        H377   1.081       .  S
C373        C374   1.427   1_565  A
C374        C375   1.510       .  S
C375        F379   1.385       .  S
C375        F380   1.383       .  S
C375        F381   1.372       .  S
C378        F382   1.383       .  S
C378        F383   1.384       .  S
C378        F384   1.383       .  S
C385        C386   1.412   1_545  A
C385        C390   1.405       .  A
C385        H392   1.082       .  S
C386        C387   1.415       .  A
C387        C388   1.431       .  A
C387        C394   1.512       .  S
C388        C389   1.421   1_565  A
C388        H393   1.080       .  S
C389        C390   1.424       .  A
C390        C391   1.526       .  S
C391        F395   1.385       .  S
C391        F396   1.383       .  S
C391        F397   1.384       .  S
C394        F398   1.383       .  S
C394        F399   1.383       .  S
C394        F400   1.383       .  S
C401        C402   1.413       .  A
C401        C406   1.397       .  A
C401        H408   1.083       .  S
C402        C403   1.409       .  A
C403        C404   1.397       .  A
C403        C410   1.520       .  S
C404        C405   1.411       .  A
C404        H409   1.083       .  S
C405        C406   1.406       .  A
C406        C407   1.519       .  S
C407        F411   1.385       .  S
C407        F412   1.383       .  S
C407        F413   1.383       .  S
C410        F414   1.383       .  S
C410        F415   1.384       .  S
C410        F416   1.385       .  S
C417        C418   1.396       .  A
C417        C422   1.377       .  A
C417        H424   1.083       .  S
C418        C419   1.409       .  A
C419        C420   1.378       .  A
C419        C426   1.520       .  S
C420        C421   1.403       .  A
C420        H425   1.082       .  S
C421        C422   1.414       .  A
C422        C423   1.516       .  S
C423        F427   1.385       .  S
C423        F428   1.379       .  S
C423        F429   1.380       .  S
C426        F430   1.381       .  S
C426        F431   1.382       .  S
C426        F432   1.385       .  S
C433        C434   1.415       .  A
C433        C438   1.432       .  A
C433        H440   1.084       .  S
C434        C435   1.442       .  A
C435        C436   1.412   1_565  A
C435       C1034   1.526       .  S
C436        C437   1.397       .  A
C436        H441   1.084       .  S
C437        C438   1.426   1_545  A
C438        C439   1.512       .  S
C439        F443   1.383       .  S
C439        F444   1.382   1_565  S
C439        F445   1.383       .  S
C442       C1027   1.526       .  S
C442        F446   1.372       .  S
C442        F447   1.382       .  S
C442        F448   1.385   1_565  S
C449        C450   1.419       .  A
C449        C454   1.441       .  A
C449        H456   1.079       .  S
C450        C451   1.435       .  A
C451        C452   1.407       .  A
C451        C458   1.529       .  S
C452        C453   1.408       .  A
C452        H457   1.082       .  S
C453        C454   1.429       .  A
C454       C1047   1.514       .  S
C455       C1046   1.514       .  S
C455        F459   1.384       .  S
C455        F460   1.383       .  S
C455        F461   1.382       .  S
C458        F462   1.383       .  S
C458        F463   1.384       .  S
C458        F464   1.386       .  S
C465        C466   1.411       .  A
C465        C470   1.418       .  A
C465        H472   1.085       .  S
C466        C467   1.413       .  A
C467        C468   1.401       .  A
C467        C474   1.521       .  S
C468        C469   1.415       .  A
C468        H473   1.082       .  S
C469        C470   1.424       .  A
C470        C471   1.518       .  S
C471        F475   1.384       .  S
C471        F476   1.378       .  S
C471        F477   1.383       .  S
C474        F478   1.382       .  S
C474        F479   1.382       .  S
C474        F480   1.385       .  S
C481        C482   1.396       .  A
C481        C486   1.403       .  A
C481        H488   1.086       .  S
C482        C483   1.412       .  A
C483        C484   1.409       .  A
C483        C490   1.517       .  S
C484        C485   1.408       .  A
C484        H489   1.083       .  S
C485        C486   1.428       .  A
C486        C487   1.520       .  S
C487        F491   1.383       .  S
C487        F492   1.385       .  S
C487       F1085   1.373       .  S
C490        F494   1.383       .  S
C490        F495   1.378       .  S
C490        F496   1.384       .  S
F493       C1079   1.373   1_554  S
C497        C498   1.412   1_455  A
C497        C502   1.427       .  A
C497        H504   1.082       .  S
C498        C499   1.426       .  A
C499        C500   1.426       .  A
C499        C506   1.518       .  S
C500        C501   1.414   1_655  A
C500        H505   1.082       .  S
C501        C502   1.431       .  A
C502        C503   1.520       .  S
C503        F507   1.385       .  S
C503        F508   1.384       .  S
C503        F509   1.383       .  S
C506        F510   1.382       .  S
C506        F511   1.384       .  S
C506        F512   1.385       .  S
C513        C514   1.407   1_455  A
C513        C518   1.420   1_565  A
C513        H520   1.083       .  S
C514        C515   1.426   1_565  A
C515        C516   1.431       .  A
C515       C1114   1.513   1_544  S
C516        C517   1.413   1_655  A
C516        H521   1.082       .  S
C517        C518   1.422       .  A
C518        C519   1.506       .  S
C519        F523   1.384   1_545  S
C519        F524   1.380   1_455  S
C519        F525   1.383       .  S
C522       C1107   1.513   1_565  S
C522        F526   1.383       .  S
C522        F527   1.380   1_655  S
C522        F528   1.384   1_565  S
C529        C530   1.404       .  A
C529        C534   1.407       .  A
C529        H536   1.084       .  S
C530        C531   1.420       .  A
C531        C532   1.402       .  A
C531        C538   1.522       .  S
C532        C533   1.402       .  A
C532        H537   1.083       .  S
C533        C534   1.415       .  A
C534        C535   1.516       .  S
C535        F539   1.384       .  S
C535        F540   1.383       .  S
C535        F541   1.383       .  S
C538        F542   1.384       .  S
C538        F543   1.383   1_455  S
C538        F544   1.385       .  S
C545        C546   1.413       .  A
C545        C550   1.414       .  A
C545        H552   1.082       .  S
C546        C547   1.432       .  A
C547        C548   1.406       .  A
C547        C554   1.524       .  S
C548        C549   1.396       .  A
C548        H553   1.084       .  S
C549        C550   1.414       .  A
C550        C551   1.518       .  S
C551        F555   1.384   1_455  S
C551        F556   1.383       .  S
C551        F557   1.383   1_565  S
C554        F558   1.382       .  S
C554        F560   1.385       .  S
C554       F1151   1.383       .  S
F559       C1146   1.383       .  S
C561        C566   1.396       .  A
C561       C1154   1.384       .  A
C561        H568   1.084       .  S
C562        C563   1.413       .  A
C562       C1153   1.384       .  A
C563        C564   1.393       .  A
C563        C570   1.515       .  S
C564        C565   1.400       .  A
C564        H569   1.084       .  S
C565       C1158   1.440       .  A
C566       C1157   1.440       .  A
C566        C567   1.525   1_556  S
C567        F571   1.385       .  S
C567        F572   1.383       .  S
C567       F1165   1.380   1_554  S
C570        F574   1.383       .  S
C570        F575   1.383       .  S
C570        F576   1.384       .  S
F573       C1159   1.380       .  S
C577        C578   1.397       .  A
C577        C582   1.386       .  A
C577        H584   1.084       .  S
C578       C1171   1.404   1_554  A
C579        C580   1.381       .  A
C579       C1170   1.404       .  A
C579        C586   1.521       .  S
C580       C1173   1.396       .  A
C580        H585   1.084       .  S
C581        C582   1.401       .  A
C581       C1172   1.396   1_554  A
C582        C583   1.517       .  S
C583        F587   1.384       .  S
C583        F588   1.383       .  S
C583        F589   1.383       .  S
C586        F590   1.382       .  S
C586        F591   1.384       .  S
C586        F592   1.384       .  S
O593       Ni599   1.896       .  S
O593        C614   1.267       .  A
O594        C603   1.282       .  A
O595       Ni599   1.903       .  S
O595       Ni617   1.905   1_455  S
O595        H618   0.966       .  S
C596        O613   1.289       .  A
C596        O605   1.278   1_455  A
C596       C1122   1.476       .  S
O597       Ni616   1.880   1_554  S
O597        C603   1.273   1_554  A
O598        C600   1.267       .  A
Ni599       O602   1.909       .  S
C600        O610   1.276   1_655  A
C600       C1090   1.529       .  S
O601       Ni617   1.990       .  S
O601        C607   1.295   1_655  A
O602        C607   1.269       .  A
C603       C1154   1.451       .  S
O604        C606   1.267       .  A
O605       Ni616   1.902       .  S
C606        O612   1.280       .  A
C606       C1138   1.506       .  S
C607       C1106   1.522   1_455  S
H608        O609   0.966   1_455  S
O609       Ni611   1.838   1_656  S
O609       Ni616   1.869       .  S
Ni611       O613   1.951   1_554  S
C614        O615   1.246       .  A
C614       C1173   1.409       .  S
O619       Ni625   1.878       .  S
O619        C640   1.255       .  A
O620        C629   1.287       .  A
O621       Ni625   1.874       .  S
O621       Ni643   1.892       .  S
O621        H644   0.966       .  S
C622        O639   1.283       .  A
C622        O631   1.287       .  A
C622       C1077   1.487       .  S
O623       Ni642   1.883   1_554  S
O623        C629   1.261       .  A
O624        C626   1.263       .  A
Ni625       O628   1.884       .  S
C626        O636   1.288       .  A
C626       C1026   1.538       .  S
O627       Ni643   2.023       .  S
O627        C633   1.302       .  A
O628        C633   1.273       .  A
C629       C1157   1.476   1_554  S
O630        C632   1.264   1_554  A
O631       Ni642   1.932       .  S
C632        O638   1.275       .  A
C632       C1058   1.491       .  S
C633       C1045   1.535       .  S
H634        O635   0.965       .  S
O635       Ni637   1.840   1_556  S
O635       Ni642   1.830       .  S
Ni637       O639   1.930   1_554  S
C640        O641   1.259       .  A
C640       C1170   1.405       .  S
O645       Ni651   1.891       .  S
O645        C666   1.263       .  A
O646       Ni669   1.907       .  S
O646        C655   1.278       .  A
O647       Ni651   1.868       .  S
O647       Ni669   1.879   1_565  S
O647       Ni663   1.916       .  S
O647        H670   0.966       .  S
C648        O665   1.280       .  A
C648        O657   1.285   1_565  A
C648       C1074   1.471       .  S
O649       Ni668   1.893       .  S
O649        C655   1.272       .  A
O650       Ni668   1.909       .  S
O650        C652   1.266       .  A
Ni651       O654   1.878       .  S
Ni651       O656   1.905       .  S
C652        O662   1.274   1_545  A
C652        C981   1.520       .  S
O653       Ni669   1.991       .  S
O653        C659   1.297   1_545  A
O654        C659   1.270       .  A
C655        C994   1.468       .  S
O656        C658   1.261       .  A
O657       Ni668   1.935       .  S
C658        O664   1.273   1_565  A
C658       C1141   1.479       .  S
C659        C962   1.504   1_565  S
H660        O661   0.966       .  S
O661       Ni669   1.943       .  S
O661       Ni663   1.841   1_545  S
O661       Ni668   1.849       .  S
O662       Ni663   1.947       .  S
Ni663       O667   1.852       .  S
Ni663       O665   1.919       .  S
O664       Ni669   1.942       .  S
C666        O667   1.252       .  A
C666       C1013   1.440       .  S
O671       Ni677   1.899       .  S
O671        C692   1.263       .  A
O672       Ni695   1.906       .  S
O672        C681   1.283       .  A
O673       Ni677   1.875       .  S
O673       Ni695   1.880       .  S
O673       Ni689   1.935       .  S
O673        H696   0.966       .  S
C674        O691   1.285       .  A
C674        O683   1.285       .  A
C674       C1125   1.475       .  S
O675       Ni694   1.891       .  S
O675        C681   1.275       .  A
O676       Ni694   1.926       .  S
O676        C678   1.271       .  A
Ni677       O680   1.908       .  S
Ni677       O682   1.888       .  S
C678        O688   1.275       .  A
C678        C946   1.530       .  S
O679       Ni695   2.003       .  S
O679        C685   1.300       .  A
O680        C685   1.277       .  A
C681        C997   1.465       .  S
O682        C684   1.263       .  A
O683       Ni694   1.928       .  S
C684        O690   1.277       .  A
C684       C1061   1.505       .  S
C685        C930   1.515       .  S
H686        O687   0.966       .  S
O687       Ni695   1.941       .  S
O687       Ni689   1.832       .  S
O687       Ni694   1.851       .  S
O688       Ni689   1.949       .  S
Ni689       O693   1.847       .  S
Ni689       O691   1.924       .  S
O690       Ni695   1.964       .  S
C692        O693   1.251       .  A
C692       C1010   1.427       .  S
O697       Ni703   1.897       .  S
O697        C718   1.259       .  A
O698       Ni721   1.927       .  S
O698        C707   1.290       .  A
O699       Ni703   1.888       .  S
O699       Ni721   1.894       .  S
O699       Ni715   1.932       .  S
O699        H722   0.966       .  S
C700        O717   1.284       .  A
C700        O709   1.280       .  A
C700        C869   1.488       .  S
O701       Ni720   1.888       .  S
O701        C707   1.269       .  A
O702       Ni720   1.937       .  S
O702        C704   1.268       .  A
Ni703       O706   1.900       .  S
Ni703       O708   1.883       .  S
C704        O714   1.280       .  A
C704        C933   1.527       .  S
O705       Ni721   1.998       .  S
O705        C711   1.303       .  A
O706        C711   1.275       .  A
C707        C898   1.455       .  S
O708        C710   1.262       .  A
O709       Ni720   1.928       .  S
C710        O716   1.280       .  A
C710        C882   1.482       .  S
C711        C949   1.512       .  S
H712        O713   0.965       .  S
O713       Ni721   1.943       .  S
O713       Ni715   1.832       .  S
O713       Ni720   1.857       .  S
O714       Ni715   1.967       .  S
Ni715       O719   1.845       .  S
Ni715       O717   1.920       .  S
O716       Ni721   1.962       .  S
C718        O719   1.249       .  A
C718        C914   1.430       .  S
O723       Ni729   1.864       .  S
O723        C744   1.264       .  A
O724       Ni747   1.914       .  S
O724        C733   1.286       .  A
O725       Ni729   1.863       .  S
O725       Ni747   1.906   1_545  S
O725       Ni741   1.918       .  S
O725        H748   0.966       .  S
C726        O743   1.281       .  A
C726        O735   1.278       .  A
C726        C850   1.482       .  S
O727       Ni746   1.878       .  S
O727        C733   1.272       .  A
O728       Ni746   1.902       .  S
O728        C730   1.272       .  A
Ni729       O732   1.882   1_545  S
Ni729       O734   1.961       .  S
C730        O740   1.285   1_565  A
C730        C965   1.527       .  S
O731       Ni747   2.007       .  S
O731        C737   1.290       .  A
O732        C737   1.254       .  A
C733        C901   1.460       .  S
O734        C736   1.279       .  A
O735       Ni746   1.916   1_545  S
C736        O742   1.275   1_545  A
C736        C834   1.524       .  S
C737        C978   1.517       .  S
H738        O739   0.965   1_545  S
O739       Ni747   1.939       .  S
O739       Ni741   1.859   1_565  S
O739       Ni746   1.838       .  S
O740       Ni741   1.966       .  S
Ni741       O745   1.888       .  S
Ni741       O743   1.931       .  S
O742       Ni747   1.928       .  S
C744        O745   1.264       .  A
C744        C917   1.458       .  S
O749       Ni755   1.941       .  S
O749        C770   1.286       .  A
O750       Ni773   1.922       .  S
O750        C759   1.261       .  A
O751       Ni755   1.872       .  S
O751       Ni773   1.879   1_455  S
O751       Ni767   1.952       .  S
O751        H774   0.965       .  S
C752        O769   1.302   1_655  A
C752        O761   1.274       .  A
C752       C1109   1.526   1_655  S
O753       Ni772   1.873       .  S
O753        C759   1.245       .  A
O754       Ni772   1.889       .  S
O754        C756   1.261       .  A
Ni755       O758   1.945       .  S
Ni755       O760   1.939       .  S
C756        O766   1.263   1_655  A
C756        C853   1.467       .  S
O757       Ni773   1.926       .  S
O757        C763   1.278       .  A
O758        C763   1.287   1_455  A
C759        C818   1.464       .  S
O760        C762   1.276       .  A
O761       Ni772   1.921       .  S
C762        O768   1.283   1_455  A
C762       C1093   1.535       .  S
C763        C885   1.505       .  S
H764        O765   0.966       .  S
O765       Ni773   1.962       .  S
O765       Ni767   1.896   1_655  S
O765       Ni772   1.898       .  S
O766       Ni767   1.929       .  S
Ni767       O771   1.901       .  S
Ni767       O769   2.005       .  S
O768       Ni773   1.952       .  S
C770        O771   1.274       .  A
C770        C802   1.487       .  S
O775       Ni781   1.906       .  S
O775        C796   1.275       .  A
O776       Ni799   1.944       .  S
O776        C785   1.287       .  A
O777       Ni781   1.902       .  S
O777       Ni799   1.912       .  S
O777       Ni793   1.953       .  S
O777        H800   0.966       .  S
C778        O795   1.281       .  A
C778        O787   1.284       .  A
C778        C866   1.463       .  S
O779       Ni798   1.896       .  S
O779        C785   1.271       .  A
O780       Ni798   1.894       .  S
O780        C782   1.260       .  A
Ni781       O784   1.917       .  S
Ni781       O786   1.921       .  S
C782        O792   1.287       .  A
C782       C1042   1.537       .  S
O783       Ni799   1.977       .  S
O783        C789   1.288       .  A
O784        C789   1.263       .  A
C785        C805   1.490       .  S
O786        C788   1.279       .  A
O787       Ni798   1.920       .  S
C788        O794   1.290       .  A
C788        C837   1.502       .  S
C789       C1029   1.507       .  S
H790        O791   0.964       .  S
O791       Ni799   1.926       .  S
O791       Ni793   1.863       .  S
O791       Ni798   1.843       .  S
O792       Ni793   1.980       .  S
Ni793       O797   1.887       .  S
Ni793       O795   1.924       .  S
O794       Ni799   1.982       .  S
C796        O797   1.262       .  A
C796        C821   1.479       .  S
C801        C802   1.413       .  A
C801        C806   1.415       .  A
C801        H808   1.083       .  S
C802        C803   1.416       .  A
C803        C804   1.400       .  A
C803        C810   1.522       .  S
C804        C805   1.409       .  A
C804        H809   1.083       .  S
C805        C806   1.414       .  A
C806        C807   1.515       .  S
C807        F811   1.384       .  S
C807        F812   1.383       .  S
C807        F813   1.382       .  S
C810        F814   1.383       .  S
C810        F815   1.383       .  S
C810        F816   1.385       .  S
C817        C818   1.407       .  A
C817        C822   1.405       .  A
C817        H824   1.084       .  S
C818        C819   1.429       .  A
C819        C820   1.388       .  A
C819        C826   1.530       .  S
C820        C821   1.392       .  A
C820        H825   1.085       .  S
C821        C822   1.413       .  A
C822        C823   1.507       .  S
C823        F827   1.383       .  S
C823        F828   1.383       .  S
C823        F829   1.383       .  S
C826        F830   1.383       .  S
C826        F831   1.375       .  S
C826        F832   1.386       .  S
C833        C834   1.412       .  A
C833        C838   1.413       .  A
C833        H840   1.081       .  S
C834        C835   1.432       .  A
C835        C836   1.420       .  A
C835        C842   1.515       .  S
C836        C837   1.403       .  A
C836        H841   1.083       .  S
C837        C838   1.420       .  A
C838        C839   1.521       .  S
C839        F843   1.381       .  S
C839        F844   1.385   1_545  S
C839        F845   1.382       .  S
C842        F846   1.382       .  S
C842        F847   1.379       .  S
C842        F848   1.385       .  S
C849        C850   1.405       .  A
C849        C854   1.404       .  A
C849        H856   1.083       .  S
C850        C851   1.425       .  A
C851        C852   1.401       .  A
C851        C858   1.514       .  S
C852        C853   1.391       .  A
C852        H857   1.080   1_655  S
C853        C854   1.411       .  A
C854        C855   1.516       .  S
C855        F859   1.385       .  S
C855        F860   1.378       .  S
C855        F861   1.383       .  S
C858        F862   1.383   1_545  S
C858        F863   1.374   1_545  S
C858        F864   1.384   1_655  S
C865        C866   1.399       .  A
C865        C870   1.406       .  A
C865        H872   1.085       .  S
C866        C867   1.407       .  A
C867        C868   1.399       .  A
C867        C874   1.521       .  S
C868        C869   1.412       .  A
C868        H873   1.084       .  S
C869        C870   1.428       .  A
C870        C871   1.522       .  S
C871        F875   1.384       .  S
C871        F876   1.374       .  S
C871        F877   1.384       .  S
C874        F878   1.383       .  S
C874        F879   1.384       .  S
C874        F880   1.385       .  S
C881        C882   1.399       .  A
C881        C886   1.413       .  A
C881        H888   1.084       .  S
C882        C883   1.416       .  A
C883        C884   1.408   1_655  A
C883        C890   1.515   1_655  S
C884        C885   1.407   1_455  A
C884        H889   1.082       .  S
C885        C886   1.431       .  A
C886        C887   1.518       .  S
C887        F891   1.385       .  S
C887        F892   1.383       .  S
C887        F893   1.381       .  S
C890        F894   1.382       .  S
C890        F895   1.380       .  S
C890        F896   1.384       .  S
C897        C898   1.410       .  A
C897        C902   1.403       .  A
C897        H904   1.084       .  S
C898        C899   1.403       .  A
C899        C900   1.398       .  A
C899        C906   1.518       .  S
C900        C901   1.412       .  A
C900        H905   1.084       .  S
C901        C902   1.405       .  A
C902        C903   1.516       .  S
C903        F907   1.384       .  S
C903        F908   1.383       .  S
C903        F909   1.383       .  S
C906        F910   1.383       .  S
C906        F911   1.383       .  S
C906        F912   1.384       .  S
C913        C914   1.399       .  A
C913        C918   1.387       .  A
C913        H920   1.083       .  S
C914        C915   1.405       .  A
C915        C916   1.377       .  A
C915        C922   1.526       .  S
C916        C917   1.412       .  A
C916        H921   1.080       .  S
C917        C918   1.414       .  A
C918        C919   1.515       .  S
C919        F923   1.385       .  S
C919        F924   1.383       .  S
C919        F925   1.382       .  S
C922        F926   1.380       .  S
C922        F927   1.383       .  S
C922        F928   1.385       .  S
C929        C930   1.398       .  A
C929        C934   1.417       .  A
C929        H936   1.083       .  S
C930        C931   1.431       .  A
C931        C932   1.428       .  A
C931        C938   1.512       .  S
C932        C933   1.405       .  A
C932        H937   1.083       .  S
C933        C934   1.432       .  A
C934        C935   1.510       .  S
C935        F939   1.385       .  S
C935        F940   1.380       .  S
C935        F941   1.377       .  S
C938        F942   1.381       .  S
C938        F943   1.380       .  S
C938        F944   1.384       .  S
C945        C946   1.412       .  A
C945        C950   1.412   1_455  A
C945        H952   1.084       .  S
C946        C947   1.428       .  A
C947        C948   1.434       .  A
C947        C954   1.515       .  S
C948        C949   1.413   1_455  A
C948        H953   1.080       .  S
C949        C950   1.420       .  A
C950        C951   1.517       .  S
C951        F955   1.384       .  S
C951        F956   1.383       .  S
C951        F957   1.383       .  S
C954        F958   1.383       .  S
C954        F959   1.381       .  S
C954        F960   1.384       .  S
C961        C962   1.411       .  A
C961        C966   1.428   1_455  A
C961        H968   1.082       .  S
C962        C963   1.423   1_545  A
C963        C964   1.400   1_455  A
C963        C970   1.527       .  S
C964        C965   1.411       .  A
C964        H969   1.081       .  S
C965        C966   1.427   1_565  A
C966        C967   1.510       .  S
C967        F971   1.385       .  S
C967        F972   1.383       .  S
C967        F973   1.372       .  S
C970        F974   1.383       .  S
C970        F975   1.384       .  S
C970        F976   1.383       .  S
C977        C978   1.412   1_545  A
C977        C982   1.405       .  A
C977        H984   1.082       .  S
C978        C979   1.415       .  A
C979        C980   1.431       .  A
C979        C986   1.512       .  S
C980        C981   1.421   1_565  A
C980        H985   1.080       .  S
C981        C982   1.424       .  A
C982        C983   1.526       .  S
C983        F987   1.385       .  S
C983        F988   1.383       .  S
C983        F989   1.384       .  S
C986        F990   1.383       .  S
C986        F991   1.383       .  S
C986        F992   1.383       .  S
C993        C994   1.413       .  A
C993        C998   1.397       .  A
C993       H1000   1.083       .  S
C994        C995   1.409       .  A
C995        C996   1.397       .  A
C995       C1002   1.520       .  S
C996        C997   1.411       .  A
C996       H1001   1.083       .  S
C997        C998   1.406       .  A
C998        C999   1.519       .  S
C999       F1003   1.385       .  S
C999       F1004   1.383       .  S
C999       F1005   1.383       .  S
C1002      F1006   1.383       .  S
C1002      F1007   1.384       .  S
C1002      F1008   1.385       .  S
C1009      C1010   1.396       .  A
C1009      C1014   1.377       .  A
C1009      H1016   1.083       .  S
C1010      C1011   1.409       .  A
C1011      C1012   1.378       .  A
C1011      C1018   1.520       .  S
C1012      C1013   1.403       .  A
C1012      H1017   1.082       .  S
C1013      C1014   1.414       .  A
C1014      C1015   1.516       .  S
C1015      F1019   1.385       .  S
C1015      F1020   1.379       .  S
C1015      F1021   1.380       .  S
C1018      F1022   1.381       .  S
C1018      F1023   1.382       .  S
C1018      F1024   1.385       .  S
C1025      C1026   1.415       .  A
C1025      C1030   1.432       .  A
C1025      H1032   1.084       .  S
C1026      C1027   1.442       .  A
C1027      C1028   1.412   1_565  A
C1028      C1029   1.397       .  A
C1028      H1033   1.084       .  S
C1029      C1030   1.426   1_545  A
C1030      C1031   1.512       .  S
C1031      F1035   1.383       .  S
C1031      F1036   1.382   1_565  S
C1031      F1037   1.383       .  S
C1034      F1038   1.372   1_554  S
C1034      F1039   1.382       .  S
C1034      F1040   1.385   1_564  S
C1041      C1042   1.419       .  A
C1041      C1046   1.441       .  A
C1041      H1048   1.079       .  S
C1042      C1043   1.435       .  A
C1043      C1044   1.407       .  A
C1043      C1050   1.529       .  S
C1044      C1045   1.408       .  A
C1044      H1049   1.082       .  S
C1045      C1046   1.429       .  A
C1047      F1051   1.384       .  S
C1047      F1052   1.383       .  S
C1047      F1053   1.382       .  S
C1050      F1054   1.383       .  S
C1050      F1055   1.384       .  S
C1050      F1056   1.386       .  S
C1057      C1058   1.411       .  A
C1057      C1062   1.418       .  A
C1057      H1064   1.085       .  S
C1058      C1059   1.413       .  A
C1059      C1060   1.401       .  A
C1059      C1066   1.521       .  S
C1060      C1061   1.415       .  A
C1060      H1065   1.082       .  S
C1061      C1062   1.424       .  A
C1062      C1063   1.518       .  S
C1063      F1067   1.384       .  S
C1063      F1068   1.378       .  S
C1063      F1069   1.383       .  S
C1066      F1070   1.382       .  S
C1066      F1071   1.382       .  S
C1066      F1072   1.385       .  S
C1073      C1074   1.396       .  A
C1073      C1078   1.403       .  A
C1073      H1080   1.086       .  S
C1074      C1075   1.412       .  A
C1075      C1076   1.409       .  A
C1075      C1082   1.517       .  S
C1076      C1077   1.408       .  A
C1076      H1081   1.083       .  S
C1077      C1078   1.428       .  A
C1078      C1079   1.520       .  S
C1079      F1083   1.383       .  S
C1079      F1084   1.385       .  S
C1082      F1086   1.383       .  S
C1082      F1087   1.378       .  S
C1082      F1088   1.384       .  S
C1089      C1090   1.412   1_455  A
C1089      C1094   1.427       .  A
C1089      H1096   1.082       .  S
C1090      C1091   1.426       .  A
C1091      C1092   1.426       .  A
C1091      C1098   1.518       .  S
C1092      C1093   1.414   1_655  A
C1092      H1097   1.082       .  S
C1093      C1094   1.431       .  A
C1094      C1095   1.520       .  S
C1095      F1099   1.385       .  S
C1095      F1100   1.384       .  S
C1095      F1101   1.383       .  S
C1098      F1102   1.382       .  S
C1098      F1103   1.384       .  S
C1098      F1104   1.385       .  S
C1105      C1106   1.407   1_455  A
C1105      C1110   1.420   1_565  A
C1105      H1112   1.083       .  S
C1106      C1107   1.426   1_565  A
C1107      C1108   1.431       .  A
C1108      C1109   1.413   1_655  A
C1108      H1113   1.082       .  S
C1109      C1110   1.422       .  A
C1110      C1111   1.506       .  S
C1111      F1115   1.384   1_545  S
C1111      F1116   1.380   1_455  S
C1111      F1117   1.383       .  S
C1114      F1118   1.383       .  S
C1114      F1119   1.380   1_655  S
C1114      F1120   1.384   1_565  S
C1121      C1122   1.404       .  A
C1121      C1126   1.407       .  A
C1121      H1128   1.084       .  S
C1122      C1123   1.420       .  A
C1123      C1124   1.402       .  A
C1123      C1130   1.522       .  S
C1124      C1125   1.402       .  A
C1124      H1129   1.083       .  S
C1125      C1126   1.415       .  A
C1126      C1127   1.516       .  S
C1127      F1131   1.384       .  S
C1127      F1132   1.383       .  S
C1127      F1133   1.383       .  S
C1130      F1134   1.384       .  S
C1130      F1135   1.383   1_455  S
C1130      F1136   1.385       .  S
C1137      C1138   1.413       .  A
C1137      C1142   1.414       .  A
C1137      H1144   1.082       .  S
C1138      C1139   1.432       .  A
C1139      C1140   1.406       .  A
C1139      C1146   1.524       .  S
C1140      C1141   1.396       .  A
C1140      H1145   1.084       .  S
C1141      C1142   1.414       .  A
C1142      C1143   1.518       .  S
C1143      F1147   1.384   1_455  S
C1143      F1148   1.383       .  S
C1143      F1149   1.383   1_565  S
C1146      F1150   1.382       .  S
C1146      F1152   1.385       .  S
C1153      C1158   1.396       .  A
C1153      H1160   1.084       .  S
C1154      C1155   1.413       .  A
C1155      C1156   1.393       .  A
C1155      C1162   1.515       .  S
C1156      C1157   1.400       .  A
C1156      H1161   1.084       .  S
C1158      C1159   1.525       .  S
C1159      F1163   1.385       .  S
C1159      F1164   1.383       .  S
C1162      F1166   1.383       .  S
C1162      F1167   1.383       .  S
C1162      F1168   1.384       .  S
C1169      C1170   1.397       .  A
C1169      C1174   1.386       .  A
C1169      H1176   1.084       .  S
C1171      C1172   1.381       .  A
C1171      C1178   1.521       .  S
C1172      H1177   1.084       .  S
C1173      C1174   1.401       .  A
C1174      C1175   1.517       .  S
C1175      F1179   1.384       .  S
C1175      F1180   1.383       .  S
C1175      F1181   1.383       .  S
C1178      F1182   1.382       .  S
C1178      F1183   1.384       .  S
C1178      F1184   1.384       .  S
