geometry optimzed in LAMMPS
_audit_creation_date              2020-12-01 
_audit_creation_method            'lammps2cif' 
_symmetry_space_group_name_H-M    'P1' 
_symmetry_Int_Tables_number       1 
_symmetry_cell_setting            triclinic 
loop_ 
_symmetry_equiv_pos_as_xyz 
  x,y,z 
_cell_length_a                    30.71353579 
_cell_length_b                    30.625605601152262 
_cell_length_c                    169.10230620831646 
_cell_angle_alpha                 89.9730668468006 
_cell_angle_beta                  89.88436968732007 
_cell_angle_gamma                 120.01171490779056 
loop_ 
_atom_site_label 
_atom_site_type_symbol 
_atom_site_fract_x 
_atom_site_fract_y 
_atom_site_fract_z 
_atom_site_charge 
Zr1        Zr  0.76691435  0.16743016  0.61144840     2.17500
O2          O  0.78689941  0.21695149  0.59931562    -0.51900
O3          O  0.68416193  0.15533127  0.61347837    -0.75100
O4          O  0.72114699  0.11383511  0.60038501    -0.81900
O5          O  0.82294521  0.27789001  0.62514862    -0.83600
O6          O  0.72548859  0.04183528  0.60078726    -0.79300
O7          O  0.78401481  0.25332620  0.61322375    -0.90900
O8          O  0.65230315  0.10723868  0.62448727    -0.76900
O9          O  0.72268942  0.08155346  0.61560539    -0.86400
O10         O  0.75695880  0.16997048  0.62541656    -0.86100
O11         O  0.81736114  0.13144499  0.60761871    -0.72800
O12         O  0.84968216  0.21596056  0.61678747    -0.84900
Zr13       Zr  0.84987769  0.09685053  0.63149284     2.26400
Zr14       Zr  0.77442777  0.04608366  0.61242592     2.06300
Zr15       Zr  0.83973973  0.21493845  0.63084858     2.10000
Zr16       Zr  0.71264064  0.08386730  0.62940139     1.78800
O17         O  0.92589842  0.28363036  0.63243304    -0.93700
O18         O  0.64000382  0.00302482  0.62591312    -0.41600
O19         O  0.79545598  0.12897895  0.63468224    -0.78200
O20         O  0.76483631  0.04755560  0.62645934    -0.96900
O21         O  0.85799451  0.09398101  0.61751446    -0.90200
O22         O  0.89376010  0.18268983  0.62727168    -0.93000
C23         C  0.64994450  0.13343440  0.61872263     1.00700
C24         C  0.80363986  0.28505196  0.61890658     1.13700
C25         C  0.71043386  0.07041354  0.59770077     1.04400
O26         O  0.69771049  0.96413702  0.61236741    -0.95200
O27         O  0.79161292  0.98185765  0.61785977    -0.90900
O28         O  0.82828355  0.00985759  0.62986028    -0.84100
C29         C  0.81043555  0.97679190  0.62436628     1.11100
O30         O  0.91305043  0.22641695  0.60082465    -0.97200
Zr31       Zr  0.89948696  0.17952744  0.61313334     1.88900
O32         O  0.94003621  0.12602252  0.62963167    -0.73800
O33         O  0.81172173  0.02654213  0.60123948    -0.53100
O34         O  0.92827768  0.14749467  0.60232546    -0.97700
O35         O  0.96754532  0.26602519  0.61501640    -0.55000
O36         O  0.96516210  0.16663193  0.61788365    -0.74300
C37         C  0.97296448  0.14831427  0.62412205     0.98000
O38         O  0.87829633  0.06080051  0.64176538    -0.63100
O39         O  0.82304197  0.26073178  0.64106994    -0.57900
O40         O  0.83900274  0.11896016  0.64509064    -0.94600
O41         O  0.83800118  0.19228883  0.64478990    -0.93000
O42         O  0.68688254  0.11175155  0.64108438    -0.93400
O43         O  0.68750129  0.02773688  0.64079924    -0.92200
C44         C  0.83613020  0.15490952  0.64856120     1.16900
H45         H  0.73878225  0.18702646  0.62682875     0.32800
H46         H  0.74827588  0.01380140  0.62860848     0.43700
H47         H  0.92615537  0.20150965  0.62979321     0.37200
H48         H  0.82000655  0.13151198  0.60192385     0.33700
H49         H  0.61178965  0.00180691  0.62894237     0.25500
H50         H  0.84494300  0.03331501  0.60316822     0.31400
H51         H  0.96527997  0.16961138  0.60217903     0.37300
H52         H  0.71831156  0.13200194  0.64410544     0.31800
H53         H  0.84238767  0.29686373  0.63961050     0.30600
H54         H  0.92547076  0.31375600  0.63040889     0.32300
H55         H  0.99561687  0.26936459  0.61169912     0.31300
H56         H  0.71949035  0.03663933  0.64349270     0.35300
H57         H  0.90365043  0.08964483  0.64489569     0.28000
H58         H  0.75431573  0.21225741  0.59743149     0.32300
H59         H  0.94936595  0.24226732  0.59959958     0.35100
H60         H  0.78726516  0.25083579  0.64041247     0.27700
H61         H  0.84940692  0.04198767  0.64538966     0.40600
H62         H  0.68941493  0.95531478  0.61801564     0.30600
H63         H  0.63263005  0.00682613  0.62033922     0.38300
H64         H  0.97914830  0.26734939  0.62050951     0.30100
H65         H  0.79169518  0.98938177  0.60074446     0.30200
H66         H  0.79629993  0.19901203  0.59540641     0.30400
Zr67       Zr  0.79876968  0.20084259  0.69959063     2.17500
O68         O  0.79823478  0.25653015  0.68929534    -0.51900
O69         O  0.70895182  0.17462653  0.70093611    -0.75100
O70         O  0.79026159  0.16861517  0.68600338    -0.81900
O71         O  0.85071875  0.31004466  0.71426470    -0.83600
O72         O  0.79760138  0.09859412  0.68600864    -0.79300
O73         O  0.81640417  0.28560044  0.70203688    -0.90900
O74         O  0.68050910  0.12996934  0.71234768    -0.76900
O75         O  0.75604434  0.11391570  0.70296521    -0.86400
O76         O  0.78406454  0.19786714  0.71350940    -0.86100
O77         O  0.85908341  0.17530183  0.69629082    -0.72800
O78         O  0.87991413  0.24897879  0.70593703    -0.84900
Zr79       Zr  0.87784185  0.12644554  0.71996035     2.26400
Zr80       Zr  0.81535639  0.08754750  0.69965048     2.06300
Zr81       Zr  0.86410032  0.24392609  0.71988456     2.10000
Zr82       Zr  0.74295855  0.11113287  0.71696757     1.78800
O83         O  0.93522474  0.32809809  0.72211462    -0.93700
O84         O  0.67182294  0.02961466  0.71329313    -0.41600
O85         O  0.82205450  0.15666828  0.72362910    -0.78200
O86         O  0.79772870  0.08020689  0.71356852    -0.96900
O87         O  0.89485616  0.13219293  0.70614172    -0.90200
O88         O  0.92050941  0.21406020  0.71672019    -0.93000
C89         C  0.67543031  0.15239429  0.70636240     1.00700
C90         C  0.83321471  0.31700868  0.70775787     1.13700
C91         C  0.79288723  0.13288016  0.68241348     1.04400
O92         O  0.73570833  0.01147344  0.69689926    -0.95200
O93         O  0.82429019  0.01944195  0.70497281    -0.90900
O94         O  0.86233953  0.04180686  0.71699441    -0.84100
C95         C  0.84114464  0.01027062  0.71131281     1.11100
O96         O  0.96749319  0.28627217  0.69312459    -0.97200
Zr97       Zr  0.93742075  0.21944900  0.70303334     1.88900
O98         O  0.96178808  0.13945720  0.71819255    -0.73800
O99         O  0.86413566  0.06555272  0.69080357    -0.53100
O100        O  0.96709716  0.19843748  0.69102644    -0.97700
O101        O  0.00865052  0.29854733  0.70758273    -0.55000
O102        O  0.99500799  0.19217897  0.70772265    -0.74300
C103        C  0.99715068  0.16408618  0.71316785     0.98000
O104        O  0.85155106  0.07301722  0.73172656    -0.63100
O105        O  0.81267027  0.25256503  0.73006170    -0.57900
O106        O  0.91669199  0.17412209  0.73198707    -0.94600
O107        O  0.90812858  0.24376855  0.73204762    -0.93000
O108        O  0.71832065  0.13827147  0.72885772    -0.93400
O109        O  0.71236935  0.04752719  0.72738449    -0.92200
C110        C  0.92327581  0.21518069  0.73516251     1.16900
H111        H  0.76381120  0.21285519  0.71483907     0.32800
H112        H  0.78069911  0.04528551  0.71517925     0.43700
H113        H  0.95173686  0.23228210  0.71957742     0.37200
H114        H  0.86922206  0.18120003  0.69081906     0.33700
H115        H  0.64175840  0.03049825  0.71519585     0.25500
H116        H  0.83913506  0.03944898  0.68723938     0.31400
H117        H  0.97329534  0.17083136  0.69256771     0.37300
H118        H  0.68120476  0.11729147  0.72904961     0.31800
H119        H  0.81988524  0.23966539  0.73496209     0.30600
H120        H  0.92861733  0.33825215  0.72733717     0.32300
H121        H  0.02287736  0.28961169  0.71213546     0.31300
H122        H  0.73922263  0.03897224  0.72808244     0.35300
H123        H  0.83404075  0.08628399  0.73500767     0.28000
H124        H  0.76687784  0.23648962  0.68624628     0.32300
H125        H  0.00303280  0.29622347  0.69209661     0.35100
H126        H  0.82844568  0.28937705  0.73091087     0.27700
H127        H  0.82412924  0.03962009  0.73000595     0.40600
H128        H  0.74514709  0.98700706  0.69486877     0.30600
H129        H  0.66993266  0.03070262  0.70745884     0.38300
H130        H  0.99335095  0.31737042  0.70992186     0.30100
H131        H  0.88323195  0.09558132  0.68739581     0.30200
H132        H  0.82597419  0.26311156  0.68561173     0.30400
Zr133      Zr  0.80323101  0.57230421  0.61150379     2.17500
O134        O  0.75167446  0.54120748  0.59963377    -0.51900
O135        O  0.81431002  0.50012183  0.61317995    -0.75100
O136        O  0.85503286  0.58409457  0.59982330    -0.81900
O137        O  0.68984463  0.52335889  0.62502043    -0.83600
O138        O  0.92730833  0.65971888  0.60071347    -0.79300
O139        O  0.71559632  0.50729816  0.61330740    -0.90900
O140        O  0.86095786  0.51416110  0.62430656    -0.76900
O141        O  0.88927603  0.61386211  0.61542184    -0.86400
O142        O  0.80251931  0.55679000  0.62536303    -0.86100
O143        O  0.83667968  0.65968126  0.60826236    -0.72800
O144        O  0.75609281  0.60566214  0.61777047    -0.84900
Zr145      Zr  0.87420440  0.72144378  0.63258375     2.26400
Zr146      Zr  0.92226027  0.70156726  0.61273084     2.06300
Zr147      Zr  0.75939309  0.59360454  0.63168768     2.10000
Zr148      Zr  0.88837523  0.59934268  0.62916875     1.78800
O149        O  0.69128133  0.60794949  0.63571061    -0.93700
O150        O  0.96559512  0.60409630  0.62424852    -0.41600
O151        O  0.84390320  0.63610940  0.63398454    -0.78200
O152        O  0.92402478  0.68841393  0.62671434    -0.96900
O153        O  0.87520598  0.73610471  0.61872349    -0.90200
O154        O  0.78829683  0.68009876  0.62872235    -0.93000
C155        C  0.83505518  0.48660013  0.61845267     1.00700
C156        C  0.68215031  0.49775688  0.61864933     1.13700
C157        C  0.89850472  0.61761414  0.59721173     1.04400
O158        O  0.00550389  0.71060850  0.61173759    -0.95200
O159        O  0.98559870  0.78227300  0.61821611    -0.90900
O160        O  0.95974727  0.79005949  0.63046216    -0.84100
C161        C  0.99173307  0.80588645  0.62477865     1.11100
O162        O  0.74428556  0.66521950  0.60214159    -0.97200
Zr163      Zr  0.78940208  0.69239742  0.61467298     1.88900
O164        O  0.84510713  0.78365977  0.63133046    -0.73800
O165        O  0.93823726  0.76023660  0.60190348    -0.53100
O166        O  0.82352370  0.76145844  0.60512911    -0.97700
O167        O  0.70114108  0.66684907  0.61664979    -0.55000
O168        O  0.79425242  0.76528804  0.62066860    -0.74300
C169        C  0.81718112  0.79242053  0.62663815     0.98000
O170        O  0.90556428  0.77286207  0.64452882    -0.63100
O171        O  0.72195472  0.51863853  0.64010001    -0.57900
O172        O  0.85281422  0.68799733  0.64609638    -0.94600
O173        O  0.78164601  0.61193956  0.64554784    -0.93000
O174        O  0.86290104  0.54702206  0.64099585    -0.93400
O175        O  0.95043388  0.62736294  0.63971508    -0.92200
C176        C  0.81794745  0.64760484  0.64939155     1.16900
H177        H  0.78513252  0.52129479  0.62662008     0.32800
H178        H  0.95805764  0.70572600  0.62868687     0.43700
H179        H  0.76924827  0.69226066  0.63158373     0.37200
H180        H  0.83580931  0.66366640  0.60260631     0.33700
H181        H  0.97066409  0.58061890  0.62763491     0.25500
H182        H  0.93719220  0.78899746  0.60437617     0.31400
H183        H  0.79879488  0.77320073  0.60491761     0.37300
H184        H  0.82981713  0.54308172  0.64240342     0.31800
H185        H  0.68590486  0.50836833  0.64051101     0.30600
H186        H  0.68579308  0.59880681  0.64138849     0.32300
H187        H  0.69631988  0.69243722  0.61383245     0.31300
H188        H  0.94749053  0.65444667  0.64241784     0.35300
H189        H  0.94075705  0.78066719  0.64520779     0.28000
H190        H  0.75973656  0.51642714  0.59730000     0.32300
H191        H  0.73018376  0.68756479  0.60116352     0.35100
H192        H  0.72248529  0.49165628  0.63695339     0.27700
H193        H  0.90810889  0.80554553  0.64320618     0.40600
H194        H  0.01421700  0.70656008  0.61721787     0.30600
H195        H  0.95701862  0.58757374  0.61900098     0.38300
H196        H  0.69829511  0.67310047  0.62231851     0.30100
H197        H  0.97411202  0.77367016  0.60055386     0.30200
H198        H  0.76590724  0.56997099  0.59589234     0.30400
Zr199      Zr  0.76703330  0.56847558  0.70038373     2.17500
O200        O  0.70800034  0.51326704  0.69037178    -0.51900
O201        O  0.79861075  0.50918078  0.70183948    -0.75100
O202        O  0.80062161  0.58794373  0.68686405    -0.81900
O203        O  0.65453353  0.51268465  0.71444160    -0.83600
O204        O  0.86991820  0.66565910  0.68684835    -0.79300
O205        O  0.68483588  0.49821437  0.70306010    -0.90900
O206        O  0.84814900  0.53048275  0.71269040    -0.76900
O207        O  0.85268990  0.61194548  0.70426818    -0.86400
O208        O  0.76612271  0.55861676  0.71439574    -0.86100
O209        O  0.79415688  0.65391737  0.69655053    -0.72800
O210        O  0.71829790  0.60375768  0.70578877    -0.84900
Zr211      Zr  0.83827956  0.72415920  0.72008764     2.26400
Zr212      Zr  0.88069575  0.69704846  0.70034725     2.06300
Zr213      Zr  0.71863416  0.59422294  0.71981466     2.10000
Zr214      Zr  0.85167743  0.60361642  0.71836125     1.78800
O215        O  0.63581370  0.58655498  0.72012543    -0.93700
O216        O  0.94013304  0.62817341  0.71721682    -0.41600
O217        O  0.80447104  0.63811664  0.72414632    -0.78200
O218        O  0.88530249  0.68883521  0.71441558    -0.96900
O219        O  0.83629165  0.73448942  0.70617654    -0.90200
O220        O  0.75177599  0.68074712  0.71628741    -0.93000
C221        C  0.82671933  0.50228442  0.70674643     1.00700
C222        C  0.65103507  0.48558123  0.70838098     1.13700
C223        C  0.83654910  0.62607968  0.68327059     1.04400
O224        O  0.95491123  0.68967376  0.69792096    -0.95200
O225        O  0.94752179  0.77495146  0.70552426    -0.90900
O226        O  0.92482152  0.79153068  0.71745585    -0.84100
C227        C  0.95664770  0.80157067  0.71179864     1.11100
O228        O  0.69147413  0.65881002  0.69147899    -0.97200
Zr229      Zr  0.75037877  0.69100169  0.70249429     1.88900
O230        O  0.82642982  0.79487493  0.71761560    -0.73800
O231        O  0.90786257  0.76738122  0.69116011    -0.53100
O232        O  0.78505464  0.74598641  0.69100001    -0.97700
O233        O  0.66869138  0.68280287  0.70528787    -0.55000
O234        O  0.77271261  0.77435332  0.70731053    -0.74300
C235        C  0.80119987  0.80494762  0.71265938     0.98000
O236        O  0.88483578  0.75382730  0.73247297    -0.63100
O237        O  0.70194631  0.53780187  0.73099662    -0.57900
O238        O  0.78735541  0.71738262  0.73155439    -0.94600
O239        O  0.71630915  0.64053821  0.73150555    -0.93000
O240        O  0.81893364  0.53767686  0.72840752    -0.93400
O241        O  0.89572247  0.63367682  0.73089595    -0.92200
C242        C  0.74485647  0.68442553  0.73453752     1.16900
H243        H  0.75117895  0.52344576  0.71581917     0.32800
H244        H  0.91973928  0.70648210  0.71619995     0.43700
H245        H  0.73331429  0.69483945  0.71879734     0.37200
H246        H  0.78916087  0.65721648  0.69101034     0.33700
H247        H  0.94383042  0.60327543  0.72044826     0.25500
H248        H  0.93807770  0.77040451  0.68852856     0.31400
H249        H  0.81463553  0.77693229  0.69301870     0.37300
H250        H  0.84630051  0.53005926  0.72931057     0.31800
H251        H  0.66804889  0.52936673  0.73286858     0.30600
H252        H  0.61958099  0.56663286  0.72495075     0.32300
H253        H  0.67332076  0.70213010  0.71020775     0.31300
H254        H  0.91532386  0.67082285  0.73033469     0.35300
H255        H  0.87055710  0.72374519  0.73595001     0.28000
H256        H  0.72584321  0.49945672  0.68729559     0.32300
H257        H  0.68725385  0.68734142  0.68973102     0.35100
H258        H  0.69712832  0.50611619  0.72863431     0.27700
H259        H  0.91924072  0.76050611  0.73131899     0.40600
H260        H  0.97514120  0.70254634  0.70280278     0.30600
H261        H  0.94417869  0.62015211  0.71168888     0.38300
H262        H  0.64702158  0.64710466  0.70685945     0.30100
H263        H  0.88191361  0.75528901  0.68697585     0.30200
H264        H  0.70343046  0.53572999  0.68667318     0.30400
Zr265      Zr  0.40213993  0.20410608  0.61186677     2.17500
O266        O  0.43642375  0.18481028  0.60022496    -0.51900
O267        O  0.47156655  0.28882420  0.61372776    -0.75100
O268        O  0.39282619  0.24430758  0.60005644    -0.81900
O269        O  0.45064761  0.14303732  0.62619097    -0.83600
O270        O  0.31566569  0.23757331  0.60018638    -0.79300
O271        O  0.46740673  0.18248125  0.61425087    -0.90900
O272        O  0.44968676  0.32430831  0.62357967    -0.76900
O273        O  0.35638311  0.24577824  0.61498857    -0.86400
O274        O  0.41306374  0.22026959  0.62572611    -0.86100
O275        O  0.31658983  0.14714377  0.60809946    -0.72800
O276        O  0.36974584  0.12428470  0.61831003    -0.84900
Zr277      Zr  0.24702793  0.12236410  0.63190090     2.26400
Zr278      Zr  0.27045398  0.18811081  0.61182065     2.06300
Zr279      Zr  0.37794309  0.14030236  0.63219911     2.10000
Zr280      Zr  0.36734276  0.26206512  0.62870524     1.78800
O281        O  0.36374256  0.05808527  0.63639735    -0.93700
O282        O  0.35339208  0.33009204  0.62443568    -0.41600
O283        O  0.33234602  0.18203759  0.63502983    -0.78200
O284        O  0.27985535  0.20471099  0.62577349    -0.96900
O285        O  0.23709260  0.10730836  0.61801762    -0.90200
O286        O  0.29281251  0.08069672  0.62883036    -0.93000
C287        C  0.48058300  0.32572780  0.61831409     1.00700
C288        C  0.47629138  0.15923383  0.61979951     1.13700
C289        C  0.35932473  0.25298936  0.59710675     1.04400
O290        O  0.25343983  0.25680960  0.60971814    -0.95200
O291        O  0.18784700  0.16889666  0.61667542    -0.90900
O292        O  0.17686878  0.13463291  0.62892260    -0.84100
C293        C  0.16230490  0.15046761  0.62306890     1.11100
O294        O  0.32171471  0.04790250  0.60360435    -0.97200
Zr295      Zr  0.28483421  0.06794471  0.61480308     1.88900
O296        O  0.18711208  0.03118779  0.63081245    -0.73800
O297        O  0.21723504  0.14029219  0.60077060    -0.53100
O298        O  0.22449915  0.03078567  0.60406834    -0.97700
O299        O  0.30542825  0.00272807  0.61799120    -0.55000
O300        O  0.20729123  0.00177979  0.61996380    -0.74300
C301        C  0.17902632  0.99590496  0.62586608     0.98000
O302        O  0.19508614  0.11048352  0.64353178    -0.63100
O303        O  0.44910952  0.17839009  0.64126065    -0.57900
O304        O  0.27454613  0.13008111  0.64571073    -0.94600
O305        O  0.35447928  0.14418673  0.64581170    -0.93000
O306        O  0.42285994  0.29354110  0.64010816    -0.93400
O307        O  0.33663601  0.28948299  0.63984252    -0.92200
C308        C  0.31522430  0.13950343  0.64931475     1.16900
H309        H  0.44808315  0.24029329  0.62715039     0.32800
H310        H  0.26075666  0.22037733  0.62742087     0.43700
H311        H  0.28035583  0.04964208  0.63176760     0.37200
H312        H  0.31450914  0.14185939  0.60244842     0.33700
H313        H  0.38091343  0.36075576  0.62691802     0.25500
H314        H  0.18683231  0.11233649  0.60325899     0.31400
H315        H  0.21643805  0.99519230  0.60384649     0.37300
H316        H  0.42713240  0.26491529  0.64177728     0.31800
H317        H  0.46011092  0.15318728  0.64184158     0.30600
H318        H  0.37206495  0.06214080  0.64210041     0.32300
H319        H  0.28324814  0.97381727  0.61457821     0.31300
H320        H  0.30417644  0.25945235  0.64128222     0.35300
H321        H  0.18609492  0.13734472  0.64345009     0.28000
H322        H  0.46217760  0.21792184  0.59808798     0.32300
H323        H  0.35021533  0.08076168  0.60189821     0.35100
H324        H  0.47662200  0.20662673  0.63829527     0.27700
H325        H  0.16324466  0.07859410  0.64263515     0.40600
H326        H  0.26552178  0.27736977  0.61458524     0.30600
H327        H  0.36169526  0.33438262  0.61872429     0.38300
H328        H  0.29234053  0.99143102  0.62340696     0.30100
H329        H  0.20563882  0.16252903  0.59850213     0.30200
H330        H  0.40905175  0.17130578  0.59626655     0.30400
Zr331      Zr  0.39771028  0.16845276  0.69968315     2.17500
O332        O  0.45511656  0.17262711  0.68931391    -0.51900
O333        O  0.46102376  0.25809611  0.70139352    -0.75100
O334        O  0.37495714  0.18086301  0.68622322    -0.81900
O335        O  0.45567878  0.11786039  0.71442187    -0.83600
O336        O  0.29854899  0.17565607  0.68667892    -0.79300
O337        O  0.46230751  0.14626003  0.70179180    -0.90900
O338        O  0.43811690  0.28937157  0.71173379    -0.76900
O339        O  0.35472050  0.21167139  0.70355169    -0.86400
O340        O  0.40885036  0.18033355  0.71364605    -0.86100
O341        O  0.31149590  0.11050925  0.69625415    -0.72800
O342        O  0.36364917  0.08572365  0.70559648    -0.84900
Zr343      Zr  0.24341001  0.08688726  0.71988889     2.26400
Zr344      Zr  0.26872234  0.15466810  0.70016402     2.06300
Zr345      Zr  0.37355854  0.09861549  0.71960556     2.10000
Zr346      Zr  0.36435644  0.22152142  0.71758963     1.78800
O347        O  0.38453470  0.02552543  0.72092756    -0.93700
O348        O  0.34068497  0.28597962  0.71602554    -0.41600
O349        O  0.32932986  0.14058591  0.72375925    -0.78200
O350        O  0.27860819  0.16905972  0.71412374    -0.96900
O351        O  0.23263893  0.07293756  0.70601911    -0.90200
O352        O  0.28733542  0.04394171  0.71624202    -0.93000
C353        C  0.46766638  0.29409689  0.70607501     1.00700
C354        C  0.47861430  0.13267886  0.70772831     1.13700
C355        C  0.33679308  0.18000763  0.68291721     1.04400
O356        O  0.27553250  0.23634717  0.69788031    -0.95200
O357        O  0.19186449  0.14548969  0.70570907    -0.90900
O358        O  0.17492721  0.10411610  0.71745972    -0.84100
C359        C  0.16515385  0.12707338  0.71198003     1.11100
O360        O  0.31544646  0.00202218  0.69266277    -0.97200
Zr361      Zr  0.27670920  0.03035373  0.70248287     1.88900
O362        O  0.17309955  0.00319947  0.71768433    -0.73800
O363        O  0.19820594  0.11142171  0.69110005    -0.53100
O364        O  0.22938919  0.00481561  0.69016015    -0.97700
O365        O  0.27984459  0.95574784  0.70669373    -0.55000
O366        O  0.19091817  0.97311415  0.70666397    -0.74300
C367        C  0.16148089  0.96956859  0.71232510     0.98000
O368        O  0.21160958  0.10736709  0.73174692    -0.63100
O369        O  0.42825821  0.14442739  0.73064192    -0.57900
O370        O  0.25236073  0.04581999  0.73154258    -0.94600
O371        O  0.32887515  0.05128052  0.73147696    -0.93000
O372        O  0.43035717  0.25397890  0.72755124    -0.93400
O373        O  0.33817843  0.24164659  0.73001346    -0.92200
C374        C  0.28532621  0.03661670  0.73456399     1.16900
H375        H  0.44407534  0.20064122  0.71494126     0.32800
H376        H  0.26116049  0.18602672  0.71596008     0.43700
H377        H  0.27365114  0.01183313  0.71890301     0.37200
H378        H  0.30704226  0.10152191  0.69073757     0.33700
H379        H  0.36623442  0.31535183  0.71903465     0.25500
H380        H  0.20007024  0.13807357  0.68755996     0.31400
H381        H  0.19900347  0.00731734  0.69121724     0.37300
H382        H  0.44148524  0.29033119  0.72797275     0.31800
H383        H  0.43934527  0.12144297  0.73276305     0.30600
H384        H  0.40647880  0.03291826  0.72560344     0.32300
H385        H  0.25418156  0.93995523  0.71090712     0.31300
H386        H  0.30679324  0.21045675  0.73146250     0.35300
H387        H  0.23731277  0.11534585  0.73587619     0.28000
H388        H  0.46770564  0.20563839  0.68666481     0.32300
H389        H  0.28939397  0.96725326  0.69123651     0.35100
H390        H  0.45881860  0.17230939  0.72817895     0.27700
H391        H  0.21426589  0.14035257  0.73062107     0.40600
H392        H  0.24220052  0.22830915  0.69581104     0.30600
H393        H  0.34794454  0.29639360  0.71041251     0.38300
H394        H  0.31237294  0.96917523  0.70947593     0.30100
H395        H  0.20713067  0.09077671  0.68769649     0.30200
H396        H  0.43424407  0.14701397  0.68532148     0.30400
Zr397      Zr  0.22850101  0.40919173  0.88691117     2.17500
O398        O  0.20065115  0.43874442  0.89815138    -0.51900
O399        O  0.31328220  0.47809325  0.88511289    -0.75100
O400        O  0.27151163  0.40528822  0.89871527    -0.81900
O401        O  0.16695036  0.45601157  0.87260795    -0.83600
O402        O  0.26320401  0.32759623  0.89939588    -0.79300
O403        O  0.21054590  0.47617000  0.88415579    -0.90900
O404        O  0.34829689  0.45513799  0.87534483    -0.76900
O405        O  0.27097862  0.36408849  0.88404267    -0.86400
O406        O  0.24367698  0.41836458  0.87301105    -0.86100
O407        O  0.17268743  0.32443885  0.89114894    -0.72800
O408        O  0.14835259  0.37499128  0.88065522    -0.84900
Zr409      Zr  0.14804640  0.25182733  0.86767327     2.26400
Zr410      Zr  0.21469325  0.27895925  0.88782825     2.06300
Zr411      Zr  0.16338672  0.38197942  0.86675100     2.10000
Zr412      Zr  0.28595384  0.37280450  0.87025888     1.78800
O413        O  0.08072932  0.36826130  0.86313013    -0.93700
O414        O  0.35525965  0.36027826  0.87415782    -0.41600
O415        O  0.20599317  0.33692031  0.86398213    -0.78200
O416        O  0.23010857  0.28607687  0.87379973    -0.96900
O417        O  0.13395244  0.24363942  0.88160082    -0.90200
O418        O  0.10541364  0.29686764  0.87054281    -0.93000
C419        C  0.35015886  0.48646419  0.88056855     1.00700
C420        C  0.18596989  0.48390907  0.87874014     1.13700
C421        C  0.27959259  0.37253201  0.90211674     1.04400
O422        O  0.28528942  0.26612959  0.89053518    -0.95200
O423        O  0.19886440  0.19663757  0.88336416    -0.90900
O424        O  0.16320028  0.18424576  0.87121587    -0.84100
C425        C  0.18027464  0.17074799  0.87703215     1.11100
O426        O  0.07735070  0.32770470  0.89620042    -0.97200
Zr427      Zr  0.09302253  0.29016698  0.88459420     1.88900
O428        O  0.05742580  0.19172157  0.86881885    -0.73800
O429        O  0.16435453  0.22501265  0.89871020    -0.53100
O430        O  0.05760927  0.22856727  0.89527410    -0.97700
O431        O  0.02875819  0.31212437  0.88153906    -0.55000
O432        O  0.02584136  0.21291270  0.87933370    -0.74300
C433        C  0.02140816  0.18416513  0.87354809     0.98000
O434        O  0.13357006  0.19238233  0.85701789    -0.63100
O435        O  0.20087489  0.45135633  0.85728005    -0.57900
O436        O  0.15518733  0.27736441  0.85369089    -0.94600
O437        O  0.16221160  0.35466902  0.85317528    -0.93000
O438        O  0.31815792  0.42751847  0.85871658    -0.93400
O439        O  0.30887369  0.33603195  0.85939127    -0.92200
C440        C  0.16034409  0.31604035  0.84984116     1.16900
H441        H  0.26363149  0.45334146  0.87147734     0.32800
H442        H  0.24624757  0.26725916  0.87224277     0.43700
H443        H  0.07433324  0.28375521  0.86763680     0.37200
H444        H  0.16781425  0.32388781  0.89680038     0.33700
H445        H  0.38415330  0.38480854  0.87092974     0.25500
H446        H  0.18730747  0.21642727  0.90153064     0.31400
H447        H  0.02111768  0.21668408  0.89522495     0.37300
H448        H  0.28831912  0.42711905  0.85642325     0.31800
H449        H  0.17406206  0.45940684  0.85613004     0.30600
H450        H  0.07789260  0.36105903  0.85738917     0.32300
H451        H  0.99915328  0.28869892  0.88473895     0.31300
H452        H  0.27646567  0.31230822  0.85685571     0.35300
H453        H  0.16525184  0.19163172  0.85636802     0.28000
H454        H  0.23125474  0.46888517  0.90011284     0.32300
H455        H  0.04115817  0.30636775  0.89745112     0.35100
H456        H  0.22648522  0.48079016  0.86027287     0.27700
H457        H  0.10867260  0.15852279  0.85902890     0.40600
H458        H  0.30374945  0.27362754  0.88545349     0.30600
H459        H  0.36364741  0.37361456  0.87961352     0.38300
H460        H  0.01873860  0.30101155  0.87601575     0.30100
H461        H  0.15982714  0.24756817  0.90238901     0.30200
H462        H  0.19146654  0.41280396  0.90231137     0.30400
Zr463      Zr  0.18048369  0.39268139  0.79869237     2.17500
O464        O  0.17989753  0.44953486  0.80874561    -0.51900
O465        O  0.27027490  0.45368970  0.79672848    -0.75100
O466        O  0.19391760  0.37173320  0.81224507    -0.81900
O467        O  0.12647301  0.45019980  0.78455797    -0.83600
O468        O  0.18504835  0.29366160  0.81202783    -0.79300
O469        O  0.16738918  0.46268567  0.79626502    -0.90900
O470        O  0.29435298  0.43635144  0.78498391    -0.76900
O471        O  0.22067237  0.34671781  0.79497003    -0.86400
O472        O  0.19108725  0.40213058  0.78466511    -0.86100
O473        O  0.12007789  0.30769063  0.80243990    -0.72800
O474        O  0.09778908  0.36028198  0.79297803    -0.84900
Zr475      Zr  0.09274479  0.23683271  0.77890235     2.26400
Zr476      Zr  0.16118445  0.26190113  0.79866260     2.06300
Zr477      Zr  0.10932821  0.36916698  0.77893970     2.10000
Zr478      Zr  0.22963993  0.35454740  0.78089915     1.78800
O479        O  0.03681230  0.38072626  0.77759564    -0.93700
O480        O  0.30071830  0.34395325  0.78444142    -0.41600
O481        O  0.14883037  0.32218162  0.77485684    -0.78200
O482        O  0.17451839  0.26932775  0.78463157    -0.96900
O483        O  0.07989683  0.22770710  0.79280898    -0.90200
O484        O  0.05252000  0.28342500  0.78252090    -0.93000
C485        C  0.30183417  0.46419246  0.79102281     1.00700
C486        C  0.14781688  0.47618902  0.79081377     1.13700
C487        C  0.19163950  0.33313672  0.81570751     1.04400
O488        O  0.24166223  0.26571282  0.80041043    -0.95200
O489        O  0.14548694  0.18146679  0.79373780    -0.90900
O490        O  0.10567321  0.16580786  0.78187594    -0.84100
C491        C  0.12559009  0.15415041  0.78760544     1.11100
O492        O  0.01416016  0.31235654  0.80661471    -0.97200
Zr493      Zr  0.03976733  0.27394096  0.79633525     1.88900
O494        O  0.00911766  0.16802144  0.78155731    -0.73800
O495        O  0.11671778  0.19494792  0.80835306    -0.53100
O496        O  0.01510741  0.22302357  0.80835010    -0.97700
O497        O  0.96892766  0.28468518  0.79267978    -0.55000
O498        O  0.97765305  0.18918975  0.79210166    -0.74300
C499        C  0.97482093  0.15830479  0.78671669     0.98000
O500        O  0.10998933  0.20373625  0.76689909    -0.63100
O501        O  0.15424015  0.42575737  0.76797447    -0.57900
O502        O  0.05085054  0.24584564  0.76727724    -0.94600
O503        O  0.06180970  0.32492338  0.76703850    -0.93000
O504        O  0.25538372  0.40407583  0.76876321    -0.93400
O505        O  0.25294096  0.31548500  0.77042013    -0.92200
C506        C  0.04422436  0.28036399  0.76411043     1.16900
H507        H  0.21169714  0.43720468  0.78322397     0.32800
H508        H  0.18988044  0.25010914  0.78289892     0.43700
H509        H  0.02043442  0.27062033  0.77993063     0.37200
H510        H  0.11213129  0.30454464  0.80800297     0.33700
H511        H  0.32887068  0.36863506  0.78110718     0.25500
H512        H  0.14295854  0.19653929  0.81193007     0.31400
H513        H  0.01208623  0.19051771  0.80675655     0.37300
H514        H  0.29240855  0.41934208  0.76859016     0.31800
H515        H  0.13794434  0.44642260  0.76732133     0.30600
H516        H  0.04757058  0.40882548  0.77377915     0.32300
H517        H  0.95104712  0.25970422  0.78845369     0.31300
H518        H  0.22057001  0.29025669  0.76804766     0.35300
H519        H  0.12402636  0.23225858  0.76311237     0.28000
H520        H  0.21395305  0.46638131  0.81109036     0.32300
H521        H  0.98050541  0.28563571  0.80839271     0.35100
H522        H  0.18808329  0.44954531  0.77005767     0.27700
H523        H  0.13902807  0.19940294  0.76819336     0.40600
H524        H  0.25031492  0.25880703  0.79508970     0.30600
H525        H  0.30994136  0.35758367  0.78987027     0.38300
H526        H  0.98435569  0.31775826  0.78996599     0.30100
H527        H  0.09740618  0.20623504  0.81161434     0.30200
H528        H  0.15694248  0.42804532  0.81299837     0.30400
Zr529      Zr  0.59254923  0.81194546  0.88663693     2.17500
O530        O  0.55575590  0.76338635  0.89869774    -0.51900
O531        O  0.52098978  0.82224104  0.88411007    -0.75100
O532        O  0.60199534  0.86521658  0.89792385    -0.81900
O533        O  0.54829121  0.69687636  0.87371058    -0.83600
O534        O  0.67902608  0.93574207  0.89777939    -0.79300
O535        O  0.53029797  0.72297230  0.88518960    -0.90900
O536        O  0.54081671  0.87348221  0.87342570    -0.76900
O537        O  0.63499810  0.89797898  0.88248353    -0.86400
O538        O  0.58073308  0.80970251  0.87266254    -0.86100
O539        O  0.67850062  0.84608072  0.89055739    -0.72800
O540        O  0.62806608  0.76435416  0.88127597    -0.84900
Zr541      Zr  0.74713346  0.88279609  0.86652264     2.26400
Zr542      Zr  0.72176801  0.93165963  0.88586172     2.06300
Zr543      Zr  0.62031275  0.76618750  0.86724794     2.10000
Zr544      Zr  0.62444942  0.89558995  0.86860938     1.78800
O545        O  0.63993657  0.69988076  0.86432659    -0.93700
O546        O  0.63262363  0.97721951  0.87179411    -0.41600
O547        O  0.66254250  0.85080016  0.86468327    -0.78200
O548        O  0.71255703  0.93273208  0.87174033    -0.96900
O549        O  0.75804503  0.88481279  0.88049772    -0.90200
O550        O  0.70622801  0.79690910  0.87069920    -0.93000
C551        C  0.51048867  0.84600071  0.87894186     1.00700
C552        C  0.52186436  0.68904810  0.87999565     1.13700
C553        C  0.63547442  0.90746028  0.90087688     1.04400
O554        O  0.72885923  0.01436071  0.88680142    -0.95200
O555        O  0.80380985  0.99557259  0.88090526    -0.90900
O556        O  0.81562946  0.96782563  0.86907174    -0.84100
C557        C  0.82965556  0.00037931  0.87464962     1.11100
O558        O  0.68209112  0.74337360  0.89624276    -0.97200
Zr559      Zr  0.71396722  0.79941491  0.88484241     1.88900
O560        O  0.80955165  0.85544600  0.86851360    -0.73800
O561        O  0.78110587  0.94790973  0.89654375    -0.53100
O562        O  0.76662135  0.82819159  0.89660441    -0.97700
O563        O  0.70280394  0.71623270  0.88216989    -0.55000
O564        O  0.79641186  0.82052915  0.88074002    -0.74300
C565        C  0.82248136  0.83814571  0.87446123     0.98000
O566        O  0.80208814  0.91804005  0.85500434    -0.63100
O567        O  0.55053398  0.72352414  0.85799734    -0.57900
O568        O  0.71569707  0.86002941  0.85286995    -0.94600
O569        O  0.64048635  0.78775493  0.85344498    -0.93000
O570        O  0.57445930  0.86207947  0.85667474    -0.93400
O571        O  0.64789638  0.95209277  0.85727412    -0.92200
C572        C  0.67573751  0.82459073  0.84958596     1.16900
H573        H  0.54572950  0.79240289  0.87116391     0.32800
H574        H  0.73037248  0.96677608  0.86971238     0.43700
H575        H  0.72012913  0.77835652  0.86815868     0.37200
H576        H  0.68059702  0.84525300  0.89625014     0.33700
H577        H  0.62247558  0.97482977  0.87741033     0.25500
H578        H  0.78623322  0.97939765  0.89902996     0.31400
H579        H  0.79549582  0.86139095  0.89511785     0.37300
H580        H  0.57963565  0.83391853  0.85507060     0.31800
H581        H  0.54362674  0.68830787  0.85775754     0.30600
H582        H  0.60905043  0.66800974  0.86571806     0.32300
H583        H  0.72533676  0.72100245  0.87765451     0.31300
H584        H  0.68508147  0.96965683  0.85712711     0.35300
H585        H  0.80692452  0.95226070  0.85424510     0.28000
H586        H  0.53221177  0.77414326  0.90068033     0.32300
H587        H  0.64874159  0.73977100  0.89731772     0.35100
H588        H  0.52087182  0.72130189  0.86070473     0.27700
H589        H  0.83539108  0.92381671  0.85670690     0.40600
H590        H  0.73900651  0.02924746  0.88145131     0.30600
H591        H  0.66919540  0.00154710  0.87177816     0.38300
H592        H  0.66844593  0.69665813  0.87997096     0.30100
H593        H  0.76199813  0.92135584  0.90052582     0.30200
H594        H  0.58344167  0.77649499  0.90260003     0.30400
Zr595      Zr  0.57330471  0.76142491  0.79847586     2.17500
O596        O  0.50694919  0.71027762  0.80791741    -0.51900
O597        O  0.51068075  0.78894041  0.79694466    -0.75100
O598        O  0.59707248  0.78948485  0.81234008    -0.81900
O599        O  0.51834973  0.65596413  0.78328072    -0.83600
O600        O  0.67289795  0.86121594  0.81229161    -0.79300
O601        O  0.51184530  0.67369569  0.79613065    -0.90900
O602        O  0.53279218  0.84429087  0.78678107    -0.76900
O603        O  0.61789293  0.84892250  0.79538221    -0.86400
O604        O  0.56338832  0.76740045  0.78456993    -0.86100
O605        O  0.65888035  0.78646377  0.80186086    -0.72800
O606        O  0.60677059  0.71391514  0.79195008    -0.84900
Zr607      Zr  0.72856519  0.83943702  0.77838910     2.26400
Zr608      Zr  0.70310982  0.87480652  0.79878417     2.06300
Zr609      Zr  0.59806868  0.72226902  0.77801337     2.10000
Zr610      Zr  0.60929758  0.85462628  0.78140688     1.78800
O611        O  0.58434435  0.63860647  0.77497712    -0.93700
O612        O  0.62787547  0.93989105  0.78455290    -0.41600
O613        O  0.64306341  0.80976897  0.77456172    -0.78200
O614        O  0.69440777  0.88509654  0.78493450    -0.96900
O615        O  0.73848160  0.83098675  0.79216140    -0.90200
O616        O  0.68380490  0.75131594  0.78130698    -0.93000
C617        C  0.50296721  0.81783795  0.79231944     1.00700
C618        C  0.49598007  0.64524031  0.79002999     1.13700
C619        C  0.63496468  0.82578977  0.81592612     1.04400
O620        O  0.69649043  0.94831831  0.80229972    -0.95200
O621        O  0.78040617  0.94450069  0.79374316    -0.90900
O622        O  0.79704192  0.92399427  0.78159257    -0.84100
C623        C  0.80712736  0.95439782  0.78744982     1.11100
O624        O  0.66032831  0.67612934  0.80483617    -0.97200
Zr625      Zr  0.69359642  0.74325147  0.79494892     1.88900
O626        O  0.79977940  0.82749517  0.78028895    -0.73800
O627        O  0.77320152  0.89690140  0.80774026    -0.53100
O628        O  0.74234281  0.76145393  0.80708308    -0.97700
O629        O  0.68501708  0.66498584  0.78975510    -0.55000
O630        O  0.77972900  0.77341412  0.79064511    -0.74300
C631        C  0.81036600  0.80313521  0.78535245     0.98000
O632        O  0.75676259  0.89313828  0.76666602    -0.63100
O633        O  0.54094955  0.71579939  0.76751083    -0.57900
O634        O  0.72194617  0.79256528  0.76639425    -0.94600
O635        O  0.64372643  0.72346209  0.76600994    -0.93000
O636        O  0.54721487  0.82774405  0.77087219    -0.93400
O637        O  0.64382423  0.91046832  0.77001071    -0.92200
C638        C  0.68802138  0.75191383  0.76309208     1.16900
H639        H  0.52829628  0.75311907  0.78323812     0.32800
H640        H  0.71231262  0.92022919  0.78343761     0.43700
H641        H  0.69722231  0.73349325  0.77841634     0.37200
H642        H  0.66317644  0.77952948  0.80726942     0.33700
H643        H  0.60488135  0.94557092  0.78116976     0.25500
H644        H  0.77481830  0.92412479  0.81110598     0.31400
H645        H  0.77173839  0.79551111  0.80625957     0.37300
H646        H  0.53750503  0.85406315  0.77064168     0.31800
H647        H  0.51061068  0.71167319  0.77025561     0.30600
H648        H  0.55755530  0.62522569  0.77091978     0.32300
H649        H  0.71247193  0.67534967  0.78583970     0.31300
H650        H  0.64651898  0.88939249  0.76581562     0.35300
H651        H  0.72654278  0.87953949  0.76327443     0.28000
H652        H  0.50212028  0.73415140  0.81123799     0.32300
H653        H  0.68460527  0.66382008  0.80510254     0.35100
H654        H  0.55671781  0.74994431  0.76515154     0.27700
H655        H  0.76170507  0.92620027  0.76838779     0.40600
H656        H  0.70617600  0.96906703  0.79742860     0.30600
H657        H  0.61474025  0.93753891  0.78998274     0.38300
H658        H  0.65382386  0.64993889  0.78657641     0.30100
H659        H  0.76159753  0.86762253  0.81133862     0.30200
H660        H  0.52159483  0.69537216  0.81147108     0.30400
Zr661      Zr  0.19214127  0.77274031  0.88667195     2.17500
O662        O  0.24766961  0.79065112  0.89798640    -0.51900
O663        O  0.17663454  0.68802990  0.88475936    -0.75100
O664        O  0.14446111  0.73303761  0.89871709    -0.81900
O665        O  0.29601811  0.83016140  0.87129663    -0.83600
O666        O  0.07542949  0.74209144  0.89922528    -0.79300
O667        O  0.27752973  0.79228478  0.88333510    -0.90900
O668        O  0.11987404  0.65333067  0.87487413    -0.76900
O669        O  0.10415119  0.73124003  0.88414948    -0.86400
O670        O  0.18322815  0.75569849  0.87283427    -0.86100
O671        O  0.16489403  0.83040005  0.89073265    -0.72800
O672        O  0.23765356  0.85208369  0.87999683    -0.84900
Zr673      Zr  0.11237738  0.85227693  0.86730051     2.26400
Zr674      Zr  0.07687918  0.78949360  0.88760839     2.06300
Zr675      Zr  0.22541004  0.83499826  0.86614270     2.10000
Zr676      Zr  0.09518341  0.71340605  0.87046933     1.78800
O677        O  0.29497042  0.91567353  0.86174243    -0.93700
O678        O  0.01794208  0.64251801  0.87562387    -0.41600
O679        O  0.13755513  0.79270304  0.86385538    -0.78200
O680        O  0.06547521  0.77073693  0.87374273    -0.96900
O681        O  0.12214362  0.86935234  0.88112503    -0.90200
O682        O  0.20050351  0.89473742  0.86977022    -0.93000
C683        C  0.14964666  0.65178480  0.88002998     1.00700
C684        C  0.30738310  0.81340187  0.87742082     1.13700
C685        C  0.10349792  0.72574104  0.90200468     1.04400
O686        O  0.99171143  0.72005566  0.88972139    -0.95200
O687        O  0.01347645  0.81079781  0.88361780    -0.90900
O688        O  0.02882787  0.83445765  0.87074781    -0.84100
C689        C  0.00245780  0.82409166  0.87705314     1.11100
O690        O  0.27700562  0.93508415  0.89347117    -0.97200
Zr691      Zr  0.20987303  0.90881758  0.88377069     1.88900
O692        O  0.14090714  0.94272959  0.86883540    -0.73800
O693        O  0.07443290  0.83723330  0.89894880    -0.53100
O694        O  0.18967454  0.93982229  0.89569964    -0.97700
O695        O  0.29082554  0.97771912  0.87927982    -0.55000
O696        O  0.19172876  0.97214234  0.87956108    -0.74300
C697        C  0.16719668  0.97730251  0.87392101     0.98000
O698        O  0.06899609  0.86744267  0.85649663    -0.63100
O699        O  0.24800041  0.79233392  0.85618740    -0.57900
O700        O  0.12822889  0.84209400  0.85329804    -0.94600
O701        O  0.19695912  0.83285772  0.85270816    -0.93000
O702        O  0.11603783  0.68548339  0.85828788    -0.93400
O703        O  0.02805137  0.67933464  0.86071212    -0.92200
C704        C  0.16009860  0.83445200  0.84944936     1.16900
H705        H  0.19828861  0.73600813  0.87120750     0.32800
H706        H  0.03023657  0.75428555  0.87239801     0.43700
H707        H  0.21822611  0.92557439  0.86675021     0.37200
H708        H  0.16971697  0.83631093  0.89635849     0.33700
H709        H  0.01461910  0.61271943  0.87278889     0.25500
H710        H  0.06890836  0.86383141  0.89666347     0.31400
H711        H  0.15771704  0.93893024  0.89448805     0.37300
H712        H  0.14927588  0.71384368  0.85670999     0.31800
H713        H  0.28240562  0.81743679  0.85446515     0.30600
H714        H  0.28730304  0.91867698  0.85615199     0.32300
H715        H  0.28295051  0.99716931  0.87543840     0.31300
H716        H  0.03224881  0.70926742  0.85780070     0.35300
H717        H  0.03667383  0.83563748  0.85579389     0.28000
H718        H  0.23867491  0.75728768  0.90022942     0.32300
H719        H  0.28654593  0.97005187  0.89493866     0.35100
H720        H  0.25143225  0.76611488  0.85907308     0.27700
H721        H  0.05963527  0.89198337  0.85851055     0.40600
H722        H  0.98459524  0.69816797  0.88503547     0.30600
H723        H  0.02589886  0.63806934  0.88113358     0.38300
H724        H  0.30530748  0.96120854  0.87603192     0.30100
H725        H  0.04238251  0.81411059  0.90165564     0.30200
H726        H  0.23618694  0.80637498  0.90197590     0.30400
Zr727      Zr  0.20367776  0.79124725  0.79882795     2.17500
O728        O  0.25976605  0.78811372  0.80873897    -0.51900
O729        O  0.17662020  0.70115137  0.79752939    -0.75100
O730        O  0.17261224  0.78333937  0.81254703    -0.81900
O731        O  0.31407004  0.84780563  0.78405425    -0.83600
O732        O  0.10084958  0.78742574  0.81229744    -0.79300
O733        O  0.28901044  0.81054485  0.79612242    -0.90900
O734        O  0.12877349  0.67064800  0.78651433    -0.76900
O735        O  0.11698049  0.74637559  0.79537015    -0.86400
O736        O  0.20077451  0.77741097  0.78488883    -0.86100
O737        O  0.17543246  0.84968907  0.80212067    -0.72800
O738        O  0.25043332  0.87352119  0.79268054    -0.84900
Zr739      Zr  0.12679452  0.86849605  0.77854291     2.26400
Zr740      Zr  0.08800476  0.80361401  0.79870185     2.06300
Zr741      Zr  0.24611572  0.85846425  0.77873820     2.10000
Zr742      Zr  0.11424895  0.73492368  0.78134215     1.78800
O743        O  0.32889822  0.93185707  0.77656503    -0.93700
O744        O  0.02873581  0.67182151  0.78502352    -0.41600
O745        O  0.15959283  0.81491127  0.77485621    -0.78200
O746        O  0.08094689  0.78759417  0.78476343    -0.96900
O747        O  0.13143196  0.88400499  0.79237452    -0.90200
O748        O  0.21398982  0.91314817  0.78187889    -0.93000
C749        C  0.15113379  0.66583382  0.79251204     1.00700
C750        C  0.32105318  0.82960817  0.79047273     1.13700
C751        C  0.13591593  0.78486739  0.81599542     1.04400
O752        O  0.01407751  0.72139733  0.80104714    -0.95200
O753        O  0.02079969  0.81473238  0.79359533    -0.90900
O754        O  0.04306567  0.85469603  0.78171594    -0.84100
C755        C  0.01201705  0.83397669  0.78750255     1.11100
O756        O  0.28065960  0.95840277  0.80607430    -0.97200
Zr757      Zr  0.21812220  0.92895234  0.79556090     1.88900
O758        O  0.13672815  0.95098549  0.78035662    -0.73800
O759        O  0.05939514  0.84500059  0.80795634    -0.53100
O760        O  0.19257051  0.95757527  0.80719925    -0.97700
O761        O  0.29693595  0.00153352  0.79120900    -0.55000
O762        O  0.18910994  0.98524440  0.79086254    -0.74300
C763        C  0.16020155  0.98597710  0.78543841     0.98000
O764        O  0.07329732  0.84115230  0.76685442    -0.63100
O765        O  0.25408509  0.80633006  0.76862194    -0.57900
O766        O  0.17573525  0.90962301  0.76671338    -0.94600
O767        O  0.24577595  0.90214307  0.76664456    -0.93000
O768        O  0.13434029  0.69689637  0.77030157    -0.93400
O769        O  0.06145306  0.71199548  0.76960092    -0.92200
C770        C  0.21710513  0.91710028  0.76357080     1.16900
H771        H  0.21601176  0.75739078  0.78354153     0.32800
H772        H  0.04617012  0.77060053  0.78314232     0.43700
H773        H  0.23187119  0.94489321  0.77909908     0.37200
H774        H  0.18105235  0.86019570  0.80756733     0.33700
H775        H  0.01961845  0.64330636  0.78136847     0.25500
H776        H  0.03763168  0.81875364  0.81182250     0.31400
H777        H  0.15881155  0.95217315  0.80589824     0.37300
H778        H  0.11160063  0.66008775  0.77091997     0.31800
H779        H  0.23226312  0.80541940  0.76424846     0.30600
H780        H  0.33974465  0.92628227  0.77132795     0.32300
H781        H  0.28712199  0.02060555  0.78760475     0.31300
H782        H  0.04595192  0.73357198  0.76976634     0.35300
H783        H  0.08692979  0.82398776  0.76356973     0.28000
H784        H  0.24027576  0.75481881  0.81134349     0.32300
H785        H  0.29151274  0.99449545  0.80682442     0.35100
H786        H  0.28876127  0.82706394  0.76656726     0.27700
H787        H  0.04032324  0.81337919  0.76866785     0.40600
H788        H  0.02684336  0.70184252  0.80389884     0.30600
H789        H  0.03197850  0.65911905  0.79024462     0.38300
H790        H  0.31266971  0.98731069  0.78772838     0.30100
H791        H  0.08964821  0.86871827  0.81097565     0.30200
H792        H  0.26467147  0.81323015  0.81284196     0.30400
Zr793      Zr  0.51868468  0.43192044  0.55408421     2.17500
O794        O  0.57083820  0.45852315  0.56591555    -0.51900
O795        O  0.50833435  0.34888627  0.55272782    -0.75100
O796        O  0.46849798  0.38681079  0.56559631    -0.81900
O797        O  0.62424808  0.48600133  0.53946403    -0.83600
O798        O  0.39556083  0.38872928  0.56532778    -0.79300
O799        O  0.60336270  0.44885652  0.55152615    -0.90900
O800        O  0.45433495  0.31122018  0.54254732    -0.76900
O801        O  0.43208765  0.38485482  0.55069658    -0.86400
O802        O  0.51626204  0.41591120  0.54023489    -0.86100
O803        O  0.48485834  0.48488845  0.55761753    -0.72800
O804        O  0.56326379  0.51260413  0.54769152    -0.84900
Zr805      Zr  0.43849038  0.50339580  0.53350561     2.26400
Zr806      Zr  0.39827684  0.43793111  0.55375178     2.06300
Zr807      Zr  0.55762267  0.49617835  0.53382157     2.10000
Zr808      Zr  0.42946780  0.36887837  0.53698538     1.78800
O809        O  0.62449380  0.58228055  0.53130110    -0.93700
O810        O  0.35055315  0.29456942  0.54077674    -0.41600
O811        O  0.47087354  0.44883498  0.53059034    -0.78200
O812        O  0.39318720  0.42123917  0.53980186    -0.96900
O813        O  0.44141864  0.51840988  0.54736772    -0.90200
O814        O  0.52533127  0.55092600  0.53680474    -0.93000
C815        C  0.48334174  0.31170994  0.54806416     1.00700
C816        C  0.63400410  0.46878057  0.54571843     1.13700
C817        C  0.42498346  0.37476062  0.56839410     1.04400
O818        O  0.31439810  0.36430077  0.55454296    -0.95200
O819        O  0.33612846  0.45936371  0.54935979    -0.90900
O820        O  0.35534322  0.48827328  0.53673990    -0.84100
C821        C  0.32754979  0.47591328  0.54291829     1.11100
O822        O  0.59220447  0.59202792  0.56103310    -0.97200
Zr823      Zr  0.52785644  0.56433345  0.55080679     1.88900
O824        O  0.46246900  0.59306865  0.53437550    -0.73800
O825        O  0.38462927  0.47873327  0.56509396    -0.53100
O826        O  0.49967192  0.59076728  0.56239758    -0.97700
O827        O  0.60506469  0.64081973  0.54696693    -0.55000
O828        O  0.50105654  0.62120913  0.54622946    -0.74300
C829        C  0.48073354  0.62603928  0.53995599     0.98000
O830        O  0.39058000  0.50329086  0.52199670    -0.63100
O831        O  0.59838992  0.47214371  0.52371146    -0.57900
O832        O  0.46419522  0.50040240  0.51980004    -0.94600
O833        O  0.53346533  0.49194897  0.52007332    -0.93000
O834        O  0.46001486  0.34371311  0.52555192    -0.93400
O835        O  0.37005048  0.33682655  0.52605691    -0.92200
C836        C  0.49832590  0.49433754  0.51636478     1.16900
H837        H  0.53331641  0.39760458  0.53890096     0.32800
H838        H  0.35845278  0.40373883  0.53814347     0.43700
H839        H  0.54190345  0.58179839  0.53377948     0.37200
H840        H  0.48743110  0.49042160  0.56326242     0.33700
H841        H  0.34884845  0.26695435  0.53750204     0.25500
H842        H  0.35035806  0.45415094  0.56696607     0.31400
H843        H  0.51785595  0.62807427  0.56213562     0.37300
H844        H  0.47884221  0.37489862  0.52237755     0.31800
H845        H  0.63450515  0.49798231  0.52394487     0.30600
H846        H  0.64450493  0.59242130  0.53623025     0.32300
H847        H  0.60470870  0.66815665  0.55003922     0.31300
H848        H  0.36573482  0.36558027  0.52448411     0.35300
H849        H  0.35887263  0.47041905  0.52208867     0.28000
H850        H  0.56637422  0.42701156  0.56830834     0.32300
H851        H  0.59852313  0.62553672  0.56278799     0.35100
H852        H  0.59645736  0.44076044  0.52567949     0.27700
H853        H  0.38055318  0.52883911  0.52306779     0.40600
H854        H  0.31929325  0.33545000  0.55331248     0.30600
H855        H  0.35633536  0.28652453  0.54620948     0.38300
H856        H  0.60002649  0.64787290  0.54143775     0.30100
H857        H  0.40715225  0.47879427  0.56927866     0.30200
H858        H  0.55390463  0.47033688  0.56961724     0.30400
Zr859      Zr  0.54894484  0.46057570  0.46523532     2.17500
O860        O  0.60998991  0.46802960  0.47514348    -0.51900
O861        O  0.51924990  0.36984900  0.46387920    -0.75100
O862        O  0.51726800  0.44955186  0.47897234    -0.81900
O863        O  0.65435452  0.50818094  0.44987365    -0.83600
O864        O  0.44995452  0.46141753  0.47895872    -0.79300
O865        O  0.63109598  0.47259877  0.46206250    -0.90900
O866        O  0.47052070  0.34121483  0.45293409    -0.76900
O867        O  0.46210153  0.41808498  0.46183162    -0.86400
O868        O  0.54525536  0.44764039  0.45125957    -0.86100
O869        O  0.52293594  0.52024263  0.46879491    -0.72800
O870        O  0.59746399  0.54249284  0.45907311    -0.84900
Zr871      Zr  0.47618851  0.54300152  0.44546627     2.26400
Zr872      Zr  0.43532804  0.47658925  0.46539912     2.06300
Zr873      Zr  0.59193203  0.52861309  0.44507198     2.10000
Zr874      Zr  0.45892613  0.40728321  0.44779145     1.78800
O875        O  0.67843645  0.59620804  0.44331446    -0.93700
O876        O  0.37351696  0.34095846  0.45086413    -0.41600
O877        O  0.50532644  0.48730514  0.44134701    -0.78200
O878        O  0.42790203  0.46160668  0.45144728    -0.96900
O879        O  0.48152920  0.55757785  0.45933236    -0.90200
O880        O  0.56328210  0.58520785  0.44874937    -0.93000
C881        C  0.49261296  0.33502785  0.45883484     1.00700
C882        C  0.66133551  0.48877088  0.45614832     1.13700
C883        C  0.48295318  0.45470003  0.48254579     1.04400
O884        O  0.36397714  0.39256453  0.46764183    -0.95200
O885        O  0.37053604  0.49212788  0.46032666    -0.90900
O886        O  0.39368514  0.53187092  0.44841679    -0.84100
C887        C  0.36252174  0.51175949  0.45418087     1.11100
O888        O  0.62978089  0.62337396  0.47307350    -0.97200
Zr889      Zr  0.56844951  0.59972641  0.46245622     1.88900
O890        O  0.49011653  0.62660780  0.44764296    -0.73800
O891        O  0.39927126  0.51170015  0.47451612    -0.53100
O892        O  0.54575092  0.63043718  0.47414648    -0.97700
O893        O  0.64954345  0.66961785  0.45824190    -0.55000
O894        O  0.54426645  0.65994141  0.45794328    -0.74300
C895        C  0.51567928  0.66187936  0.45259542     0.98000
O896        O  0.42530772  0.51815480  0.43350115    -0.63100
O897        O  0.59490976  0.48193348  0.43362190    -0.57900
O898        O  0.52566114  0.58745287  0.43395556    -0.94600
O899        O  0.59595040  0.58068554  0.43372996    -0.93000
O900        O  0.48808638  0.37689432  0.43682985    -0.93400
O901        O  0.40282201  0.38363296  0.43645250    -0.92200
C902        C  0.56800687  0.59746074  0.43093599     1.16900
H903        H  0.55927645  0.42664329  0.44983966     0.32800
H904        H  0.39320423  0.44569863  0.44979912     0.43700
H905        H  0.58195628  0.61756258  0.44616927     0.37200
H906        H  0.52932820  0.53017584  0.47426124     0.33700
H907        H  0.36765893  0.31200270  0.44752304     0.25500
H908        H  0.37485943  0.48280243  0.47776131     0.31400
H909        H  0.50854769  0.61105464  0.47427348     0.37300
H910        H  0.46413421  0.34015947  0.43660766     0.31800
H911        H  0.62977160  0.50202112  0.43161003     0.30600
H912        H  0.68947333  0.58826655  0.43827959     0.32300
H913        H  0.64152536  0.69103347  0.45486311     0.31300
H914        H  0.41957916  0.41259375  0.43277417     0.35300
H915        H  0.44462757  0.51063133  0.42957874     0.28000
H916        H  0.59416734  0.43544701  0.47800573     0.32300
H917        H  0.64434365  0.66017568  0.47377859     0.35100
H918        H  0.59307085  0.45113821  0.43583890     0.27700
H919        H  0.39643722  0.48457674  0.43479556     0.40600
H920        H  0.33941621  0.38843767  0.46350947     0.30600
H921        H  0.37534079  0.33028420  0.45632067     0.38300
H922        H  0.66317430  0.65438288  0.45453944     0.30100
H923        H  0.42671492  0.53318637  0.47820038     0.30200
H924        H  0.61216370  0.49318084  0.47903932     0.30400
Zr925      Zr  0.55073306  0.06053570  0.55417702     2.17500
O926        O  0.53142545  0.09262669  0.56608876    -0.51900
O927        O  0.63509087  0.13153329  0.55240088    -0.75100
O928        O  0.58861223  0.04692102  0.56587113    -0.81900
O929        O  0.48696249  0.10949399  0.54083898    -0.83600
O930        O  0.58284636  0.96998753  0.56514774    -0.79300
O931        O  0.52960795  0.12652324  0.55244054    -0.90900
O932        O  0.66869548  0.11301541  0.54186138    -0.76900
O933        O  0.59324274  0.01655226  0.55043345    -0.86400
O934        O  0.56535444  0.07469382  0.54029867    -0.86100
O935        O  0.49536765  0.97368190  0.55756115    -0.72800
O936        O  0.47000390  0.02740396  0.54806676    -0.84900
Zr937      Zr  0.47121456  0.91020123  0.53331364     2.26400
Zr938      Zr  0.53686067  0.92908120  0.55316138     2.06300
Zr939      Zr  0.48480372  0.03832750  0.53414190     2.10000
Zr940      Zr  0.60750501  0.03029609  0.53669795     1.78800
O941        O  0.40054742  0.02133581  0.53076169    -0.93700
O942        O  0.67595737  0.01907564  0.54170422    -0.41600
O943        O  0.52663356  0.99529763  0.53186506    -0.78200
O944        O  0.55316389  0.94153841  0.53921070    -0.96900
O945        O  0.45605655  0.89568486  0.54713143    -0.90200
O946        O  0.42677657  0.95206264  0.53715824    -0.93000
C947        C  0.67091336  0.14229485  0.54747704     1.00700
C948        C  0.50482794  0.13529600  0.54718113     1.13700
C949        C  0.59677665  0.01240118  0.56856286     1.04400
O950        O  0.60923921  0.91672083  0.55366169    -0.95200
O951        O  0.51149285  0.84485325  0.54826984    -0.90900
O952        O  0.48596228  0.84013705  0.53556874    -0.84100
C953        C  0.49585118  0.82162732  0.54164896     1.11100
O954        O  0.38822766  0.97181742  0.56237995    -0.97200
Zr955      Zr  0.41551693  0.94080763  0.55122078     1.88900
O956        O  0.38039007  0.84924644  0.53445733    -0.73800
O957        O  0.49405638  0.87130656  0.56410290    -0.53100
O958        O  0.39296625  0.88272534  0.56236299    -0.97700
O959        O  0.34517717  0.95456300  0.54864488    -0.55000
O960        O  0.35164275  0.86189747  0.54610796    -0.74300
C961        C  0.34626827  0.83672128  0.53981958     0.98000
O962        O  0.45253374  0.85697724  0.52160406    -0.63100
O963        O  0.51600942  0.11143474  0.52540709    -0.57900
O964        O  0.48354165  0.94312581  0.51983234    -0.94600
O965        O  0.48937779  0.01978420  0.52028220    -0.93000
O966        O  0.64001373  0.08714605  0.52541608    -0.93400
O967        O  0.63934646  0.00178104  0.52586493    -0.92200
C968        C  0.48972851  0.98361910  0.51650763     1.16900
H969        H  0.58447033  0.11009820  0.53898607     0.32800
H970        H  0.56918515  0.92332766  0.53729556     0.43700
H971        H  0.39545307  0.93950531  0.53434390     0.37200
H972        H  0.49047942  0.97040838  0.56322253     0.33700
H973        H  0.70532629  0.04091379  0.53832970     0.25500
H974        H  0.52008964  0.86553956  0.56652389     0.31400
H975        H  0.35633981  0.85934273  0.56185634     0.37300
H976        H  0.61456847  0.09736316  0.52445525     0.31800
H977        H  0.48962393  0.12103117  0.52544464     0.30600
H978        H  0.40057687  0.02376446  0.52492278     0.32300
H979        H  0.32935137  0.93552285  0.54375059     0.31300
H980        H  0.60918512  0.97947133  0.52270261     0.35300
H981        H  0.48300367  0.85453162  0.52057086     0.28000
H982        H  0.56433606  0.11592129  0.56852360     0.32300
H983        H  0.35564230  0.94305272  0.56412104     0.35100
H984        H  0.54484391  0.13918295  0.52821088     0.27700
H985        H  0.42671480  0.82264126  0.52329890     0.40600
H986        H  0.61728225  0.91406552  0.54807405     0.30600
H987        H  0.68471106  0.03561234  0.54695000     0.38300
H988        H  0.36107784  0.99042173  0.54704138     0.30100
H989        H  0.48788977  0.89137442  0.56806974     0.30200
H990        H  0.51523167  0.06351927  0.56975351     0.30400
Zr991      Zr  0.52475930  0.06330087  0.46569551     2.17500
O992        O  0.52997134  0.12280049  0.47577775    -0.51900
O993        O  0.61525848  0.12287904  0.46416973    -0.75100
O994        O  0.53565556  0.04173503  0.47920982    -0.81900
O995        O  0.47093131  0.11986861  0.45135168    -0.83600
O996        O  0.52901731  0.96468019  0.47928765    -0.79300
O997        O  0.50775401  0.13104783  0.46338706    -0.90900
O998        O  0.64584303  0.10088036  0.45363982    -0.76900
O999        O  0.56696948  0.01934265  0.46198975    -0.86400
O1000       O  0.53627089  0.07396332  0.45173494    -0.86100
O1001       O  0.46569265  0.97752889  0.46936866    -0.72800
O1002       O  0.44182396  0.02943548  0.46001373    -0.84900
Zr1003     Zr  0.44125046  0.90816302  0.44596063     2.26400
Zr1004     Zr  0.50934060  0.93392839  0.46572996     2.06300
Zr1005     Zr  0.45426335  0.03898071  0.44599867     2.10000
Zr1006     Zr  0.57638995  0.02808601  0.44792655     1.78800
O1007       O  0.38194336  0.05100722  0.44477045    -0.93700
O1008       O  0.63968327  0.00314960  0.44967053    -0.41600
O1009       O  0.49548085  0.99388856  0.44188156    -0.78200
O1010       O  0.52315268  0.94267341  0.45169262    -0.96900
O1011       O  0.42771025  0.89780072  0.45986427    -0.90200
O1012       O  0.39908737  0.95285239  0.44952757    -0.93000
C1013       C  0.65109301  0.12950882  0.45946130     1.00700
C1014       C  0.48980923  0.14503215  0.45774695     1.13700
C1015       C  0.53386701  0.00392126  0.48282845     1.04400
O1016       O  0.59181644  0.94348721  0.46812292    -0.95200
O1017       O  0.50023648  0.85682008  0.46023823    -0.90900
O1018       O  0.45747707  0.83926055  0.44860123    -0.84100
C1019       C  0.48081457  0.82980724  0.45404199     1.11100
O1020       O  0.36036851  0.97860919  0.47396485    -0.97200
Zr1021     Zr  0.38543890  0.94234870  0.46326339     1.88900
O1022       O  0.35736531  0.83799702  0.44813510    -0.73800
O1023       O  0.46771970  0.86394902  0.47501953    -0.53100
O1024       O  0.35825383  0.88904029  0.47501589    -0.97700
O1025       O  0.31470787  0.95303648  0.45947084    -0.55000
O1026       O  0.32408694  0.85859728  0.45848784    -0.74300
C1027       C  0.32175390  0.82821832  0.45304819     0.98000
O1028       O  0.46130476  0.87862367  0.43382532    -0.63100
O1029       O  0.49802494  0.09460511  0.43488568    -0.57900
O1030       O  0.39856573  0.91578363  0.43445235    -0.94600
O1031       O  0.40503593  0.99294771  0.43440729    -0.93000
O1032       O  0.61003337  0.09473028  0.43799151    -0.93400
O1033       O  0.59470408  0.00012835  0.43551597    -0.92200
C1034       C  0.38880121  0.94853682  0.43150545     1.16900
H1035       H  0.55685820  0.10922527  0.45039577     0.32800
H1036       H  0.53969428  0.92476251  0.44987924     0.43700
H1037       H  0.36688263  0.93926435  0.44695202     0.37200
H1038       H  0.45658928  0.97366357  0.47488273     0.33700
H1039       H  0.66860118  0.02718740  0.44640239     0.25500
H1040       H  0.49537537  0.86359854  0.47796488     0.31400
H1041       H  0.32107474  0.87003590  0.47471575     0.37300
H1042       H  0.64553271  0.10356672  0.43727923     0.31800
H1043       H  0.47960666  0.11294885  0.43392293     0.30600
H1044       H  0.39228869  0.07855025  0.44085924     0.32300
H1045       H  0.29774663  0.92899982  0.45509457     0.31300
H1046       H  0.57006208  0.96359302  0.43528356     0.35300
H1047       H  0.47425743  0.90758105  0.43012991     0.28000
H1048       H  0.56190676  0.13389426  0.47864371     0.32300
H1049       H  0.32404797  0.95506718  0.47483805     0.35100
H1050       H  0.53085008  0.12048879  0.43703744     0.27700
H1051       H  0.49131947  0.87588693  0.43508130     0.40600
H1052       H  0.59744215  0.92614775  0.46363179     0.30600
H1053       H  0.65127994  0.01241370  0.45519397     0.38300
H1054       H  0.33030538  0.98669804  0.45694502     0.30100
H1055       H  0.45104476  0.87479661  0.47893833     0.30200
H1056       H  0.50294515  0.10303898  0.47965684     0.30400
Zr1057     Zr  0.91807225  0.46426484  0.55370731     2.17500
O1058       O  0.88590791  0.41484411  0.56581004    -0.51900
O1059       O  0.84563824  0.47310940  0.55092160    -0.75100
O1060       O  0.92410063  0.51728129  0.56487467    -0.81900
O1061       O  0.87206661  0.34977142  0.54077317    -0.83600
O1062       O  0.00056912  0.58868101  0.56483179    -0.79300
O1063       O  0.85247466  0.37723412  0.55198945    -0.90900
O1064       O  0.86559275  0.52435665  0.54023651    -0.76900
O1065       O  0.95928154  0.55007476  0.54956972    -0.86400
O1066       O  0.90751003  0.46185831  0.53971406    -0.86100
O1067       O  0.00402940  0.49934565  0.55771791    -0.72800
O1068       O  0.95512606  0.41751416  0.54848210    -0.84900
Zr1069     Zr  0.07381250  0.53675781  0.53385218     2.26400
Zr1070     Zr  0.04565899  0.58507537  0.55307579     2.06300
Zr1071     Zr  0.94642205  0.41738228  0.53442186     2.10000
Zr1072     Zr  0.94934257  0.54798686  0.53568496     1.78800
O1073       O  0.96658631  0.35132912  0.53172745    -0.93700
O1074       O  0.95277268  0.62773040  0.53841874    -0.41600
O1075       O  0.98770724  0.50332659  0.53062750    -0.78200
O1076       O  0.03696376  0.58488310  0.53896832    -0.96900
O1077       O  0.08406544  0.53956791  0.54784733    -0.90200
O1078       O  0.03271112  0.45068510  0.53799014    -0.93000
C1079       C  0.83493434  0.49613783  0.54561371     1.00700
C1080       C  0.84419779  0.34319022  0.54684020     1.13700
C1081       C  0.95650283  0.56008088  0.56779815     1.04400
O1082       O  0.04863179  0.66601984  0.55290866    -0.95200
O1083       O  0.12680397  0.65018268  0.54798121    -0.90900
O1084       O  0.13935845  0.62310211  0.53613394    -0.84100
C1085       C  0.15231341  0.65600226  0.54163686     1.11100
O1086       O  0.00667442  0.39057294  0.56254190    -0.97200
Zr1087     Zr  0.04147539  0.45400117  0.55209171     1.88900
O1088       O  0.13524628  0.50876796  0.53561188    -0.73800
O1089       O  0.10359068  0.60656102  0.56412057    -0.53100
O1090       O  0.08983650  0.48624495  0.56422878    -0.97700
O1091       O  0.04146858  0.37577771  0.54930439    -0.55000
O1092       O  0.12588922  0.47954406  0.54816956    -0.74300
C1093       C  0.14991006  0.49401061  0.54163664     0.98000
O1094       O  0.12935032  0.57122867  0.52239246    -0.63100
O1095       O  0.87781162  0.37375649  0.52502621    -0.57900
O1096       O  0.04303028  0.51380469  0.52021184    -0.94600
O1097       O  0.96814521  0.44086538  0.52052844    -0.93000
O1098       O  0.90095296  0.51396480  0.52359964    -0.93400
O1099       O  0.98116516  0.60682554  0.52461425    -0.92200
C1100       C  0.00410311  0.47797676  0.51677056     1.16900
H1101       H  0.87254221  0.44426993  0.53819030     0.32800
H1102       H  0.05418361  0.61882749  0.53689311     0.43700
H1103       H  0.04696469  0.43235399  0.53548015     0.37200
H1104       H  0.00583019  0.49866245  0.56341607     0.33700
H1105       H  0.92352824  0.62547087  0.53558484     0.25500
H1106       H  0.10845973  0.63918352  0.56607368     0.31400
H1107       H  0.11929983  0.51894351  0.56270618     0.37300
H1108       H  0.88543164  0.53497872  0.52255911     0.31800
H1109       H  0.86843379  0.33780407  0.52533070     0.30600
H1110       H  0.94345057  0.32290216  0.53516751     0.32300
H1111       H  0.06573996  0.38360818  0.54492737     0.31300
H1112       H  0.00564236  0.59961538  0.52195663     0.35300
H1113       H  0.13022674  0.60319382  0.52108476     0.28000
H1114       H  0.86142595  0.42372845  0.56800535     0.32300
H1115       H  0.03526151  0.38757522  0.56459177     0.35100
H1116       H  0.84884743  0.37512398  0.52732859     0.27700
H1117       H  0.16353655  0.58165668  0.52435431     0.40600
H1118       H  0.04578409  0.67266618  0.54725865     0.30600
H1119       H  0.94385435  0.62596022  0.54408559     0.38300
H1120       H  0.00820770  0.35334610  0.54690744     0.30100
H1121       H  0.08387549  0.58204615  0.56833103     0.30200
H1122       H  0.91449725  0.42949962  0.56954945     0.30400
Zr1123     Zr  0.91975983  0.43241080  0.46602004     2.17500
O1124       O  0.86253176  0.37637733  0.47621056    -0.51900
O1125       O  0.85500296  0.45658810  0.46412308    -0.75100
O1126       O  0.94077677  0.46489564  0.47961702    -0.81900
O1127       O  0.86735649  0.31981743  0.45189027    -0.83600
O1128       O  0.01770317  0.53542888  0.47958496    -0.79300
O1129       O  0.85380930  0.34717966  0.46363822    -0.90900
O1130       O  0.87090118  0.49781781  0.45240743    -0.76900
O1131       O  0.96039735  0.51866744  0.46214128    -0.86400
O1132       O  0.90961793  0.43164881  0.45201470    -0.86100
O1133       O  0.00613510  0.46250631  0.46956451    -0.72800
O1134       O  0.95642790  0.38517842  0.46045558    -0.84900
Zr1135     Zr  0.07468317  0.50741818  0.44605213     2.26400
Zr1136     Zr  0.04620529  0.54967727  0.46581597     2.06300
Zr1137     Zr  0.94682555  0.38622463  0.44643473     2.10000
Zr1138     Zr  0.95244738  0.51762672  0.44803734     1.78800
O1139       O  0.94241648  0.30478912  0.44537174    -0.93700
O1140       O  0.96078298  0.59953548  0.45078649    -0.41600
O1141       O  0.98870960  0.47236218  0.44212070    -0.78200
O1142       O  0.03797455  0.55333192  0.45174447    -0.96900
O1143       O  0.08455651  0.50592247  0.45999485    -0.90200
O1144       O  0.03342257  0.42059894  0.44979153    -0.93000
C1145       C  0.84327387  0.47683461  0.45844498     1.00700
C1146       C  0.84127667  0.31434496  0.45815769     1.13700
C1147       C  0.97889736  0.50074100  0.48319380     1.04400
O1148       O  0.02759071  0.61765377  0.46740472    -0.95200
O1149       O  0.12437104  0.61723084  0.46048350    -0.90900
O1150       O  0.14071481  0.59399091  0.44854188    -0.84100
C1151       C  0.15100304  0.62571493  0.45420031     1.11100
O1152       O  0.00744693  0.35691300  0.47412741    -0.97200
Zr1153     Zr  0.04386791  0.41950825  0.46359391     1.88900
O1154       O  0.14810001  0.50032558  0.44874012    -0.73800
O1155       O  0.11684384  0.59119996  0.47490956    -0.53100
O1156       O  0.09351583  0.44581002  0.47568080    -0.97700
O1157       O  0.04296680  0.34245767  0.45961723    -0.55000
O1158       O  0.13099805  0.45185155  0.45974260    -0.74300
C1159       C  0.16069224  0.48016852  0.45426168     0.98000
O1160       O  0.10313472  0.55595863  0.43377520    -0.63100
O1161       O  0.88847264  0.36809017  0.43553529    -0.57900
O1162       O  0.06829813  0.45741169  0.43443635    -0.94600
O1163       O  0.99075708  0.38723556  0.43433059    -0.93000
O1164       O  0.89775902  0.48920298  0.43650725    -0.93400
O1165       O  0.98741508  0.57535556  0.43687734    -0.92200
C1166       C  0.03448300  0.41590440  0.43129938     1.16900
H1167       H  0.87445242  0.41529688  0.45062040     0.32800
H1168       H  0.05484623  0.58781447  0.44990600     0.43700
H1169       H  0.04797634  0.40291205  0.44716725     0.37200
H1170       H  0.01046303  0.45711335  0.47504302     0.33700
H1171       H  0.93196759  0.59878336  0.44804075     0.25500
H1172       H  0.10969917  0.61378733  0.47815925     0.31400
H1173       H  0.10415973  0.42052385  0.47652498     0.37300
H1174       H  0.91239817  0.47406780  0.43298108     0.31800
H1175       H  0.86831233  0.33082399  0.43533897     0.30600
H1176       H  0.91399947  0.28492979  0.44173772     0.32300
H1177       H  0.05790144  0.33394784  0.46412516     0.31300
H1178       H  0.01213200  0.56750374  0.43448501     0.35300
H1179       H  0.07431522  0.53927150  0.43010036     0.28000
H1180       H  0.85006686  0.39601921  0.47912411     0.32300
H1181       H  0.97553940  0.35578839  0.47549848     0.35100
H1182       H  0.86463490  0.37866192  0.43742492     0.27700
H1183       H  0.10526076  0.58865138  0.43493374     0.40600
H1184       H  0.04597901  0.64130754  0.46302634     0.30600
H1185       H  0.95261005  0.59845960  0.45647328     0.38300
H1186       H  0.06859490  0.35286303  0.45538535     0.30100
H1187       H  0.11339450  0.56446983  0.47858728     0.30200
H1188       H  0.88347346  0.37050051  0.48003157     0.30400
Zr1189     Zr  0.14988075  0.25336817  0.27823168     2.17500
O1190       O  0.09589258  0.21536773  0.26676721    -0.51900
O1191       O  0.16594802  0.18415641  0.27973772    -0.75100
O1192       O  0.19898529  0.26681790  0.26620125    -0.81900
O1193       O  0.03590769  0.20711138  0.29168076    -0.83600
O1194       O  0.27054287  0.34312666  0.26677838    -0.79300
O1195       O  0.06221207  0.18856757  0.28024280    -0.90900
O1196       O  0.21905879  0.20152849  0.29003831    -0.76900
O1197       O  0.23632330  0.29659977  0.28186661    -0.86400
O1198       O  0.15087462  0.23942660  0.29208254    -0.86100
O1199       O  0.18206886  0.34022861  0.27475461    -0.72800
O1200       O  0.10294205  0.28721704  0.28436255    -0.84900
Zr1201     Zr  0.22264410  0.40545253  0.29896849     2.26400
Zr1202     Zr  0.26808717  0.38406852  0.27903943     2.06300
Zr1203     Zr  0.10640155  0.27596374  0.29827972     2.10000
Zr1204     Zr  0.23748082  0.28258661  0.29558877     1.78800
O1205       O  0.03922154  0.29181914  0.30225239    -0.93700
O1206       O  0.32040305  0.29742972  0.29181801    -0.41600
O1207       O  0.19280557  0.31850665  0.30176045    -0.78200
O1208       O  0.27104408  0.37118669  0.29299335    -0.96900
O1209       O  0.22156149  0.41869968  0.28507794    -0.90200
O1210       O  0.13623561  0.36259367  0.29519960    -0.93000
C1211       C  0.19145112  0.17275569  0.28441857     1.00700
C1212       C  0.02828363  0.18086711  0.28541086     1.13700
C1213       C  0.24142088  0.30085454  0.26335425     1.04400
O1214       O  0.35089607  0.39406548  0.27685845    -0.95200
O1215       O  0.33442299  0.46329114  0.28457490    -0.90900
O1216       O  0.30853789  0.47277864  0.29670847    -0.84100
C1217       C  0.34108565  0.48724014  0.29111693     1.11100
O1218       O  0.08055628  0.34025897  0.26970147    -0.97200
Zr1219     Zr  0.13561960  0.37361515  0.28116607     1.88900
O1220       O  0.19373054  0.46715980  0.29782402    -0.73800
O1221       O  0.27989097  0.44626091  0.26902452    -0.53100
O1222       O  0.16518433  0.43229656  0.27004149    -0.97700
O1223       O  0.05165693  0.35919451  0.28416744    -0.55000
O1224       O  0.14994471  0.45183229  0.28640954    -0.74300
C1225       C  0.16996726  0.47785181  0.29260849     0.98000
O1226       O  0.25976395  0.45861042  0.31058987    -0.63100
O1227       O  0.06831525  0.20117564  0.30669718    -0.57900
O1228       O  0.19896635  0.37300324  0.31257802    -0.94600
O1229       O  0.12816641  0.29636064  0.31213554    -0.93000
O1230       O  0.20809781  0.22503482  0.30682410    -0.93400
O1231       O  0.29443554  0.30972191  0.30683377    -0.92200
C1232       C  0.16387425  0.33294955  0.31594548     1.16900
H1233       H  0.13477460  0.20393360  0.29333873     0.32800
H1234       H  0.30531035  0.38855540  0.29486747     0.43700
H1235       H  0.11744605  0.37522383  0.29801981     0.37200
H1236       H  0.18020035  0.34342631  0.26909922     0.33700
H1237       H  0.32114521  0.26716408  0.29368584     0.25500
H1238       H  0.31103682  0.45321096  0.26621563     0.31400
H1239       H  0.15406797  0.45693912  0.27116811     0.37300
H1240       H  0.18745994  0.23525020  0.30997574     0.31800
H1241       H  0.03308689  0.19311762  0.30746545     0.30600
H1242       H  0.03380809  0.28299310  0.30794094     0.32300
H1243       H  0.05576973  0.38056009  0.28881470     0.31300
H1244       H  0.28952741  0.33591074  0.30943738     0.35300
H1245       H  0.29087921  0.45758743  0.31172140     0.28000
H1246       H  0.10771482  0.19394699  0.26425306     0.32300
H1247       H  0.06661757  0.36289650  0.26887295     0.35100
H1248       H  0.06587599  0.17337883  0.30338817     0.27700
H1249       H  0.27154377  0.49360651  0.30882642     0.40600
H1250       H  0.36060827  0.38673489  0.28205497     0.30600
H1251       H  0.31938226  0.29452367  0.28598279     0.38300
H1252       H  0.03307503  0.32425268  0.28622957     0.30100
H1253       H  0.25275060  0.42763368  0.26513557     0.30200
H1254       H  0.10510689  0.24348076  0.26300826     0.30400
Zr1255     Zr  0.10869073  0.24760725  0.36684408     2.17500
O1256       O  0.05122881  0.19374045  0.35655445    -0.51900
O1257       O  0.13250348  0.18222341  0.36847118    -0.75100
O1258       O  0.14297134  0.26935641  0.35329827    -0.81900
O1259       O  0.99829989  0.19366666  0.38131648    -0.83600
O1260       O  0.21412117  0.34588655  0.35336694    -0.79300
O1261       O  0.02363622  0.18150007  0.36929267    -0.90900
O1262       O  0.17329812  0.19625177  0.38019285    -0.76900
O1263       O  0.19489404  0.28869994  0.37044536    -0.86400
O1264       O  0.10920408  0.23656498  0.38083410    -0.86100
O1265       O  0.13850470  0.33420815  0.36335110    -0.72800
O1266       O  0.06234039  0.28413234  0.37277814    -0.84900
Zr1267     Zr  0.18569567  0.40191103  0.38690313     2.26400
Zr1268     Zr  0.22557526  0.37522445  0.36696539     2.06300
Zr1269     Zr  0.06463607  0.27368289  0.38676238     2.10000
Zr1270     Zr  0.19535860  0.27892962  0.38448240     1.78800
O1271       O  0.98432220  0.27098457  0.38793597    -0.93700
O1272       O  0.27549126  0.28791514  0.38032414    -0.41600
O1273       O  0.15111368  0.31531729  0.39078386    -0.78200
O1274       O  0.23063758  0.36515121  0.38094998    -0.96900
O1275       O  0.18257232  0.41317612  0.37305990    -0.90200
O1276       O  0.09881603  0.36049790  0.38339346    -0.93000
C1277       C  0.15252232  0.16968064  0.37407311     1.00700
C1278       C  0.99142703  0.16832909  0.37490114     1.13700
C1279       C  0.17965525  0.30724697  0.34975160     1.04400
O1280       O  0.29825837  0.36579962  0.36422606    -0.95200
O1281       O  0.29517714  0.45123058  0.37239308    -0.90900
O1282       O  0.27139386  0.46917811  0.38414116    -0.84100
C1283       C  0.30370705  0.47835536  0.37861606     1.11100
O1284       O  0.02650258  0.33184931  0.36032408    -0.97200
Zr1285     Zr  0.09613486  0.37182679  0.36963984     1.88900
O1286       O  0.17600412  0.47463911  0.38469040    -0.73800
O1287       O  0.25124616  0.44657224  0.35804624    -0.53100
O1288       O  0.12092285  0.41804780  0.35717688    -0.97700
O1289       O  0.02312921  0.37795024  0.37374569    -0.55000
O1290       O  0.13022278  0.45951476  0.37343387    -0.74300
C1291       C  0.15690167  0.48804662  0.37912236     0.98000
O1292       O  0.23706029  0.43015184  0.39885001    -0.63100
O1293       O  0.04527257  0.21293185  0.39740422    -0.57900
O1294       O  0.13763627  0.39613594  0.39863369    -0.94600
O1295       O  0.06624852  0.31965768  0.39875647    -0.93000
O1296       O  0.17176639  0.22378789  0.39598390    -0.93400
O1297       O  0.25338901  0.31010816  0.39560450    -0.92200
C1298       C  0.09556727  0.36360179  0.40173095     1.16900
H1299       H  0.09284257  0.20126690  0.38223647     0.32800
H1300       H  0.26518435  0.38194166  0.38267931     0.43700
H1301       H  0.08139782  0.37509620  0.38608576     0.37200
H1302       H  0.13345543  0.33836852  0.35784631     0.33700
H1303       H  0.27938613  0.26332746  0.38361258     0.25500
H1304       H  0.27647711  0.44589506  0.35447340     0.31400
H1305       H  0.10443587  0.43876188  0.35721097     0.37300
H1306       H  0.14367149  0.22599761  0.39844323     0.31800
H1307       H  0.06562530  0.23314747  0.40194960     0.30600
H1308       H  0.96739952  0.24839326  0.39249040     0.32300
H1309       H  0.03527747  0.40393549  0.37793912     0.31300
H1310       H  0.26624445  0.34686493  0.39573510     0.35300
H1311       H  0.22088977  0.40125110  0.40255280     0.28000
H1312       H  0.06948198  0.18015849  0.35353215     0.32300
H1313       H  0.02031107  0.35889801  0.35845057     0.35100
H1314       H  0.01016029  0.20216040  0.39892045     0.27700
H1315       H  0.26913695  0.43176882  0.39744027     0.40600
H1316       H  0.31848887  0.39295071  0.36038541     0.30600
H1317       H  0.26949742  0.27356132  0.37492576     0.38300
H1318       H  0.00109364  0.34585879  0.37653781     0.30100
H1319       H  0.22159755  0.43712384  0.35465498     0.30200
H1320       H  0.04723778  0.21656786  0.35285459     0.30400
Zr1321     Zr  0.11622617  0.85097519  0.27814242     2.17500
O1322       O  0.13166516  0.90223670  0.26629514    -0.51900
O1323       O  0.03308381  0.83876526  0.28017887    -0.75100
O1324       O  0.07506881  0.79957043  0.26642507    -0.81900
O1325       O  0.18604146  0.96496017  0.29153277    -0.83600
O1326       O  0.07374962  0.72491803  0.26732077    -0.79300
O1327       O  0.14450282  0.94041543  0.27982365    -0.90900
O1328       O  0.99791412  0.78750900  0.29079710    -0.76900
O1329       O  0.07024338  0.76505019  0.28214413    -0.86400
O1330       O  0.10409125  0.85215627  0.29209549    -0.86100
O1331       O  0.16717049  0.81526098  0.27446332    -0.72800
O1332       O  0.19792468  0.89565260  0.28402142    -0.84900
Zr1333     Zr  0.19389097  0.77529438  0.29860450     2.26400
Zr1334     Zr  0.12194492  0.72960312  0.27902360     2.06300
Zr1335     Zr  0.18577394  0.89435726  0.29804148     2.10000
Zr1336     Zr  0.05845649  0.76576012  0.29595328     1.78800
O1337       O  0.27132728  0.95878987  0.30138890    -0.93700
O1338       O  0.98675391  0.68452075  0.29233294    -0.41600
O1339       O  0.13999885  0.80816103  0.30168182    -0.78200
O1340       O  0.10992129  0.72876874  0.29306877    -0.96900
O1341       O  0.20441271  0.77365893  0.28466658    -0.90200
O1342       O  0.23955588  0.86147164  0.29464501    -0.93000
C1343       C  0.99714524  0.81494668  0.28511437     1.00700
C1344       C  0.16969637  0.97382994  0.28511392     1.13700
C1345       C  0.06251491  0.75523959  0.26383560     1.04400
O1346       O  0.04599730  0.64731700  0.27841216    -0.95200
O1347       O  0.13744970  0.66405049  0.28393333    -0.90900
O1348       O  0.17144676  0.68876517  0.29614004    -0.84100
C1349       C  0.15414881  0.65694839  0.29047443     1.11100
O1350       O  0.27025151  0.91055231  0.26858618    -0.97200
Zr1351     Zr  0.24817114  0.85938156  0.28056267     1.88900
O1352       O  0.28421639  0.80285963  0.29733770    -0.73800
O1353       O  0.16244221  0.71521344  0.26772664    -0.53100
O1354       O  0.27312057  0.81988106  0.27037949    -0.97700
O1355       O  0.31995540  0.94390510  0.28235111    -0.55000
O1356       O  0.31273389  0.84628310  0.28586453    -0.74300
C1357       C  0.31878012  0.82638016  0.29209619     0.98000
O1358       O  0.20951323  0.73373417  0.30966088    -0.63100
O1359       O  0.15806907  0.93757154  0.30711048    -0.57900
O1360       O  0.18753994  0.79960466  0.31227647    -0.94600
O1361       O  0.18081011  0.87005039  0.31198565    -0.93000
O1362       O  0.03576206  0.79808720  0.30744573    -0.93400
O1363       O  0.02943760  0.71035597  0.30744992    -0.92200
C1364       C  0.18226353  0.83420156  0.31574329     1.16900
H1365       H  0.08631737  0.86974887  0.29343028     0.32800
H1366       H  0.09238692  0.69457101  0.29503892     0.43700
H1367       H  0.27154856  0.87960432  0.29730291     0.37200
H1368       H  0.17098578  0.81619524  0.26878359     0.33700
H1369       H  0.95955106  0.67967245  0.29600911     0.25500
H1370       H  0.18833428  0.70885952  0.27004572     0.31400
H1371       H  0.24814753  0.81094296  0.26609864     0.37300
H1372       H  0.06816293  0.82575009  0.30944587     0.31800
H1373       H  0.18633259  0.97275199  0.30735245     0.30600
H1374       H  0.26940794  0.96683996  0.30700352     0.32300
H1375       H  0.33447756  0.94302317  0.28752933     0.31300
H1376       H  0.06065080  0.71768453  0.31025397     0.35300
H1377       H  0.17677906  0.70355708  0.31094359     0.28000
H1378       H  0.09801559  0.89230458  0.26413654     0.32300
H1379       H  0.30392962  0.91657641  0.26703468     0.35100
H1380       H  0.13090698  0.93974116  0.30431864     0.27700
H1381       H  0.23079181  0.72043150  0.30760022     0.40600
H1382       H  0.03335819  0.64002406  0.28391913     0.30600
H1383       H  0.97580219  0.69027760  0.28712322     0.38300
H1384       H  0.30494731  0.96554654  0.28325572     0.30100
H1385       H  0.13671968  0.68211732  0.26560648     0.30200
H1386       H  0.14692919  0.88955666  0.26242163     0.30400
Zr1387     Zr  0.14791248  0.88181391  0.36719753     2.17500
O1388       O  0.16058510  0.94554249  0.35737040    -0.51900
O1389       O  0.05723382  0.85418708  0.36809805    -0.75100
O1390       O  0.13871517  0.85110047  0.35346204    -0.81900
O1391       O  0.18699993  0.98381173  0.38292458    -0.83600
O1392       O  0.15352293  0.78554478  0.35346394    -0.79300
O1393       O  0.15855468  0.96346455  0.37029523    -0.90900
O1394       O  0.02490874  0.80259839  0.37875127    -0.76900
O1395       O  0.10504795  0.79413242  0.37020162    -0.86400
O1396       O  0.12989941  0.87547843  0.38102921    -0.86100
O1397       O  0.20933473  0.85716050  0.36412852    -0.72800
O1398       O  0.22765035  0.92921308  0.37394507    -0.84900
Zr1399     Zr  0.22346006  0.80530965  0.38774280     2.26400
Zr1400     Zr  0.16517749  0.76859653  0.36714790     2.06300
Zr1401     Zr  0.20842355  0.92167814  0.38777000     2.10000
Zr1402     Zr  0.08870324  0.78824507  0.38411057     1.78800
O1403       O  0.27963654  0.00668401  0.38918941    -0.93700
O1404       O  0.02199647  0.70504938  0.38008537    -0.41600
O1405       O  0.16615120  0.83404937  0.39118336    -0.78200
O1406       O  0.14479941  0.75870768  0.38094927    -0.96900
O1407       O  0.24323923  0.81320738  0.37401353    -0.90200
O1408       O  0.26644648  0.89339210  0.38482125    -0.93000
C1409       C  0.02104338  0.82714004  0.37294953     1.00700
C1410       C  0.17065413  0.99187399  0.37639600     1.13700
C1411       C  0.14556833  0.81790827  0.34986169     1.04400
O1412       O  0.08223393  0.69762901  0.36424614    -0.95200
O1413       O  0.17714448  0.70151978  0.37246999    -0.90900
O1414       O  0.20833345  0.72074477  0.38499306    -0.84100
C1415       C  0.19143582  0.69109647  0.37899411     1.11100
O1416       O  0.31975340  0.97217994  0.36212168    -0.97200
Zr1417     Zr  0.28640280  0.90080541  0.37123268     1.88900
O1418       O  0.30642129  0.81579955  0.38588187    -0.73800
O1419       O  0.20541136  0.73601370  0.35839201    -0.53100
O1420       O  0.31761089  0.88459862  0.35896928    -0.97700
O1421       O  0.35885687  0.97572346  0.37667111    -0.55000
O1422       O  0.34037395  0.86728367  0.37522712    -0.74300
C1423       C  0.34092894  0.83805511  0.38064931     0.98000
O1424       O  0.19507392  0.75166949  0.39947546    -0.63100
O1425       O  0.16187588  0.92946616  0.39883449    -0.57900
O1426       O  0.26249682  0.85325151  0.39967420    -0.94600
O1427       O  0.25045089  0.92075422  0.39999141    -0.93000
O1428       O  0.05271702  0.81117168  0.39509411    -0.93400
O1429       O  0.06357663  0.72748938  0.39489118    -0.92200
C1430       C  0.26743782  0.89343107  0.40293583     1.16900
H1431       H  0.10846563  0.88922081  0.38229747     0.32800
H1432       H  0.12785315  0.72356931  0.38244299     0.43700
H1433       H  0.29719509  0.91152594  0.38779743     0.37200
H1434       H  0.22027159  0.86441858  0.35870244     0.33700
H1435       H  0.99230536  0.69921417  0.38322678     0.25500
H1436       H  0.17798194  0.71095997  0.35501375     0.31400
H1437       H  0.30218564  0.84746823  0.35877983     0.37300
H1438       H  0.01664988  0.78503104  0.39513831     0.31800
H1439       H  0.18250939  0.96489800  0.40059023     0.30600
H1440       H  0.27192152  0.02016912  0.39397813     0.32300
H1441       H  0.37480952  0.96302566  0.38039807     0.31300
H1442       H  0.08967112  0.74473419  0.39898704     0.35300
H1443       H  0.18878468  0.77103210  0.40355737     0.28000
H1444       H  0.12820013  0.93200537  0.35454168     0.32300
H1445       H  0.35546265  0.98221043  0.36125331     0.35100
H1446       H  0.13168240  0.92770913  0.39643027     0.27700
H1447       H  0.16091255  0.72438450  0.39807722     0.40600
H1448       H  0.08308232  0.66771598  0.36626256     0.30600
H1449       H  0.01371155  0.70960266  0.37460202     0.38300
H1450       H  0.34450618  0.99173007  0.38006512     0.30100
H1451       H  0.22678385  0.76421246  0.35478488     0.30200
H1452       H  0.18468565  0.94589112  0.35343642     0.30400
Zr1453     Zr  0.74829373  0.88437494  0.27829716     2.17500
O1454       O  0.77832042  0.86373675  0.26629230    -0.51900
O1455       O  0.81888163  0.96846950  0.28009181    -0.75100
O1456       O  0.74107044  0.92884436  0.26692293    -0.81900
O1457       O  0.79646208  0.82022427  0.29189401    -0.83600
O1458       O  0.66411727  0.92240005  0.26718940    -0.79300
O1459       O  0.81307801  0.86162208  0.28012242    -0.90900
O1460       O  0.80180417  0.00438345  0.29048468    -0.76900
O1461       O  0.70592468  0.92845040  0.28200868    -0.86400
O1462       O  0.76207827  0.89904319  0.29214977    -0.86100
O1463       O  0.66180173  0.83040318  0.27472706    -0.72800
O1464       O  0.71338402  0.80317139  0.28439628    -0.84900
Zr1465     Zr  0.59616940  0.80710219  0.29886218     2.26400
Zr1466     Zr  0.61930476  0.87410062  0.27892052     2.06300
Zr1467     Zr  0.72473292  0.81788309  0.29830405     2.10000
Zr1468     Zr  0.71960156  0.94334449  0.29573869     1.78800
O1469       O  0.70986850  0.73401626  0.30154768    -0.93700
O1470       O  0.71519063  0.01854105  0.29247533    -0.41600
O1471       O  0.68281644  0.86252828  0.30177328    -0.78200
O1472       O  0.63133496  0.89007389  0.29287550    -0.96900
O1473       O  0.58321496  0.79277853  0.28500150    -0.90200
O1474       O  0.63811270  0.76221112  0.29523372    -0.93000
C1475       C  0.83047733  0.00500446  0.28489020     1.00700
C1476       C  0.82185343  0.83726575  0.28548738     1.13700
C1477       C  0.70770229  0.93802523  0.26407842     1.04400
O1478       O  0.60802604  0.94595987  0.27632919    -0.95200
O1479       O  0.53961744  0.86025883  0.28428495    -0.90900
O1480       O  0.52941643  0.82595022  0.29650800    -0.84100
C1481       C  0.51512949  0.84322134  0.29079059     1.11100
O1482       O  0.65572168  0.72772458  0.26926504    -0.97200
Zr1483     Zr  0.62686769  0.75016570  0.28122485     1.88900
O1484       O  0.53370892  0.71660687  0.29798754    -0.73800
O1485       O  0.56141942  0.82479487  0.26840400    -0.53100
O1486       O  0.56221308  0.72003694  0.27104727    -0.97700
O1487       O  0.64367368  0.68137289  0.28356622    -0.55000
O1488       O  0.55063403  0.68512149  0.28703265    -0.74300
C1489       C  0.52363722  0.68069660  0.29307095     0.98000
O1490       O  0.54358050  0.79196897  0.31054303    -0.63100
O1491       O  0.79569637  0.85202075  0.30740914    -0.57900
O1492       O  0.62783931  0.81653769  0.31241253    -0.94600
O1493       O  0.70207537  0.81744257  0.31213618    -0.93000
O1494       O  0.77200227  0.96417139  0.30748716    -0.93400
O1495       O  0.68807307  0.97189245  0.30662016    -0.92200
C1496       C  0.66623773  0.81874880  0.31585701     1.16900
H1497       H  0.79743077  0.91775245  0.29342936     0.32800
H1498       H  0.61410912  0.90732353  0.29469542     0.43700
H1499       H  0.62518706  0.73084700  0.29809983     0.37200
H1500       H  0.65889162  0.82562273  0.26906474     0.33700
H1501       H  0.74420779  0.04639020  0.29523470     0.25500
H1502       H  0.52845658  0.80474990  0.27106471     0.31400
H1503       H  0.54697698  0.68288932  0.27106349     0.37300
H1504       H  0.78033659  0.93694280  0.30792626     0.31800
H1505       H  0.80444909  0.82513539  0.30796658     0.30600
H1506       H  0.70622461  0.73171556  0.30737491     0.32300
H1507       H  0.62874473  0.66749494  0.28880897     0.31300
H1508       H  0.66746347  0.94118295  0.30982235     0.35300
H1509       H  0.54436118  0.82417315  0.31159445     0.28000
H1510       H  0.80439906  0.89651631  0.26409982     0.32300
H1511       H  0.63199681  0.69137011  0.26840787     0.35100
H1512       H  0.82425366  0.87933952  0.30446914     0.27700
H1513       H  0.50868624  0.76845229  0.30884239     0.40600
H1514       H  0.62192189  0.96757785  0.28106142     0.30600
H1515       H  0.72416725  0.02468379  0.28679648     0.38300
H1516       H  0.68042534  0.69817922  0.28444199     0.30100
H1517       H  0.55772098  0.84981345  0.26520164     0.30200
H1518       H  0.75001780  0.85126058  0.26251111     0.30400
Zr1519     Zr  0.74306345  0.84627164  0.36698248     2.17500
O1520       O  0.79940409  0.84416035  0.35697321    -0.51900
O1521       O  0.80264618  0.93740478  0.36777645    -0.75100
O1522       O  0.72104000  0.85525380  0.35338335    -0.81900
O1523       O  0.80100188  0.79527415  0.38168410    -0.83600
O1524       O  0.64284019  0.84557593  0.35328302    -0.79300
O1525       O  0.81321385  0.83350754  0.36970618    -0.90900
O1526       O  0.78404775  0.96659669  0.37882342    -0.76900
O1527       O  0.69726000  0.88764598  0.37015060    -0.86400
O1528       O  0.75395326  0.86228407  0.38086354    -0.86100
O1529       O  0.65749945  0.78479419  0.36363402    -0.72800
O1530       O  0.71129040  0.76539042  0.37339732    -0.84900
Zr1531     Zr  0.58851515  0.76508333  0.38720212     2.26400
Zr1532     Zr  0.61215538  0.82746989  0.36685548     2.06300
Zr1533     Zr  0.72134926  0.78219537  0.38726996     2.10000
Zr1534     Zr  0.70616314  0.90143558  0.38411054     1.78800
O1535       O  0.73290510  0.71034201  0.38969827    -0.93700
O1536       O  0.69043740  0.96919544  0.38035910    -0.41600
O1537       O  0.67421295  0.82247666  0.39085641    -0.78200
O1538       O  0.62093008  0.84522554  0.38075820    -0.96900
O1539       O  0.57865836  0.74780032  0.37338076    -0.90200
O1540       O  0.63533843  0.72410921  0.38412972    -0.93000
C1541       C  0.81154333  0.97251803  0.37278977     1.00700
C1542       C  0.82658773  0.81451679  0.37529786     1.13700
C1543       C  0.68275828  0.85217504  0.34977412     1.04400
O1544       O  0.61866915  0.90895825  0.36449401    -0.95200
O1545       O  0.53335520  0.81542003  0.37207781    -0.90900
O1546       O  0.51855413  0.77979386  0.38429320    -0.84100
C1547       C  0.50683723  0.79858446  0.37839401     1.11100
O1548       O  0.66738236  0.68050496  0.36099149    -0.97200
Zr1549     Zr  0.62484155  0.70652574  0.37047308     1.88900
O1550       O  0.51839992  0.68097136  0.38508596    -0.73800
O1551       O  0.54330976  0.78445256  0.35748619    -0.53100
O1552       O  0.57604871  0.67219162  0.35843410    -0.97700
O1553       O  0.63176206  0.63557336  0.37552280    -0.55000
O1554       O  0.53885146  0.64845725  0.37463045    -0.74300
C1555       C  0.50809371  0.64613371  0.37999048     0.98000
O1556       O  0.55790099  0.78584650  0.39916253    -0.63100
O1557       O  0.78097039  0.83412013  0.39742033    -0.57900
O1558       O  0.59838921  0.72598144  0.39913492    -0.94600
O1559       O  0.67800306  0.73858834  0.39945159    -0.93000
O1560       O  0.75999027  0.93346640  0.39570494    -0.93400
O1561       O  0.67026006  0.92762016  0.39467369    -0.92200
C1562       C  0.63354002  0.72092599  0.40237601     1.16900
H1563       H  0.78902252  0.88370235  0.38216898     0.32800
H1564       H  0.60242465  0.86164353  0.38232856     0.43700
H1565       H  0.62281834  0.69284128  0.38700357     0.37200
H1566       H  0.65378881  0.77474294  0.35816465     0.33700
H1567       H  0.71970208  0.00034900  0.38239716     0.25500
H1568       H  0.54595813  0.81110620  0.35386570     0.31400
H1569       H  0.54969499  0.68175301  0.35869705     0.37300
H1570       H  0.79397792  0.94239581  0.39381217     0.31800
H1571       H  0.76015313  0.83785979  0.40154633     0.30600
H1572       H  0.75929799  0.72207846  0.39380654     0.32300
H1573       H  0.60442572  0.61869611  0.37946180     0.31300
H1574       H  0.64767501  0.89611049  0.39756529     0.35300
H1575       H  0.58653485  0.79961776  0.40289308     0.28000
H1576       H  0.81204240  0.87562708  0.35386020     0.32300
H1577       H  0.64415251  0.64414922  0.36003945     0.35100
H1578       H  0.79215916  0.81199285  0.39985637     0.27700
H1579       H  0.55474597  0.81551905  0.39775190     0.40600
H1580       H  0.61213363  0.90933434  0.35877179     0.30600
H1581       H  0.69464651  0.97199585  0.37454320     0.38300
H1582       H  0.66304853  0.65109533  0.37867825     0.30100
H1583       H  0.55251770  0.76351781  0.35420476     0.30200
H1584       H  0.77784599  0.81656180  0.35330031     0.30400
Zr1585     Zr  0.89299934  0.73916905  0.22029060     2.17500
O1586       O  0.87114651  0.76720513  0.23239050    -0.51900
O1587       O  0.97463637  0.81214215  0.21784637    -0.75100
O1588       O  0.93845118  0.73224079  0.23150646    -0.81900
O1589       O  0.82864228  0.78855668  0.20706582    -0.83600
O1590       O  0.93340149  0.65560834  0.23128086    -0.79300
O1591       O  0.87339187  0.80614487  0.21848263    -0.90900
O1592       O  0.00578713  0.79453270  0.20688220    -0.76900
O1593       O  0.93707228  0.69726576  0.21624034    -0.86400
O1594       O  0.90286637  0.75110422  0.20633907    -0.86100
O1595       O  0.84131465  0.65254923  0.22412224    -0.72800
O1596       O  0.81026764  0.70389209  0.21486959    -0.84900
Zr1597     Zr  0.81084289  0.58566063  0.20012017     2.26400
Zr1598     Zr  0.88439686  0.61021561  0.21955044     2.06300
Zr1599     Zr  0.82046962  0.71355379  0.20085695     2.10000
Zr1600     Zr  0.94721218  0.70930095  0.20240913     1.78800
O1601       O  0.73486054  0.69552843  0.19846471    -0.93700
O1602       O  0.02262861  0.70566948  0.20559934    -0.41600
O1603       O  0.86494052  0.67221127  0.19710270    -0.78200
O1604       O  0.89506470  0.62094806  0.20548171    -0.96900
O1605       O  0.80169837  0.57422515  0.21409428    -0.90200
O1606       O  0.76631806  0.62698223  0.20425451    -0.93000
C1607       C  0.00786739  0.82433179  0.21240392     1.00700
C1608       C  0.84885660  0.81540516  0.21324479     1.13700
C1609       C  0.94864027  0.69949484  0.23434272     1.04400
O1610       O  0.95857348  0.60120839  0.22051105    -0.95200
O1611       O  0.86670422  0.52868699  0.21418028    -0.90900
O1612       O  0.82821453  0.51791268  0.20228476    -0.84100
C1613       C  0.84664272  0.50362373  0.20781156     1.11100
O1614       O  0.74627397  0.64653543  0.23110656    -0.97200
Zr1615     Zr  0.75943381  0.61731513  0.21837524     1.88900
O1616       O  0.72123106  0.52305236  0.20183785    -0.73800
O1617       O  0.84037340  0.55172114  0.23034410    -0.53100
O1618       O  0.72756700  0.54884931  0.22800993    -0.97700
O1619       O  0.69387602  0.63971645  0.21730583    -0.55000
O1620       O  0.69169376  0.54225205  0.21282314    -0.74300
C1621       C  0.68628001  0.51442785  0.20686923     0.98000
O1622       O  0.79216952  0.53291711  0.18837743    -0.63100
O1623       O  0.84717892  0.78080102  0.19109028    -0.57900
O1624       O  0.82063170  0.61854511  0.18651618    -0.94600
O1625       O  0.82170726  0.69302435  0.18698794    -0.93000
O1626       O  0.96651216  0.75854790  0.19027307    -0.93400
O1627       O  0.97240552  0.67479679  0.19149308    -0.92200
C1628       C  0.82350023  0.65776935  0.18316224     1.16900
H1629       H  0.92044064  0.78629949  0.20487065     0.32800
H1630       H  0.91150919  0.60340811  0.20344667     0.43700
H1631       H  0.73416080  0.61357218  0.20166267     0.37200
H1632       H  0.83823803  0.65009814  0.22981329     0.33700
H1633       H  0.04988023  0.73402552  0.20261240     0.25500
H1634       H  0.86212850  0.53752017  0.23171238     0.31400
H1635       H  0.69109046  0.53663481  0.22844877     0.37300
H1636       H  0.00253901  0.77078032  0.18923528     0.31800
H1637       H  0.82379513  0.79401331  0.19168530     0.30600
H1638       H  0.73503470  0.70539615  0.19288298     0.32300
H1639       H  0.66539770  0.61400374  0.22046590     0.31300
H1640       H  0.94037521  0.65019820  0.18894922     0.35300
H1641       H  0.82300637  0.53128292  0.18726589     0.28000
H1642       H  0.90348330  0.79408974  0.23454435     0.32300
H1643       H  0.71125417  0.62235473  0.23269998     0.35100
H1644       H  0.87998744  0.80820664  0.19300525     0.27700
H1645       H  0.76696883  0.49838742  0.19008208     0.40600
H1646       H  0.97545193  0.61273063  0.21531511     0.30600
H1647       H  0.02969254  0.71616407  0.21120474     0.38300
H1648       H  0.68222366  0.63210398  0.21176128     0.30100
H1649       H  0.84337463  0.57326548  0.23491074     0.30200
H1650       H  0.85983172  0.73876918  0.23615672     0.30400
Zr1651     Zr  0.85870132  0.74191864  0.13197154     2.17500
O1652       O  0.86072856  0.80235443  0.14159059    -0.51900
O1653       O  0.94926079  0.80201822  0.13074395    -0.75100
O1654       O  0.86736080  0.72146871  0.14577343    -0.81900
O1655       O  0.80668703  0.79538849  0.11667754    -0.83600
O1656       O  0.86307586  0.64535028  0.14602963    -0.79300
O1657       O  0.84230125  0.80913340  0.12883322    -0.90900
O1658       O  0.97719786  0.78631776  0.11927410    -0.76900
O1659       O  0.90281914  0.69921002  0.12863185    -0.86400
O1660       O  0.87161297  0.75089971  0.11798237    -0.86100
O1661       O  0.80034190  0.65628641  0.13575899    -0.72800
O1662       O  0.77656476  0.70611272  0.12592578    -0.84900
Zr1663     Zr  0.78074880  0.58494344  0.11244750     2.26400
Zr1664     Zr  0.84589727  0.61404740  0.13252485     2.06300
Zr1665     Zr  0.79050717  0.71383943  0.11192731     2.10000
Zr1666     Zr  0.91374798  0.70642545  0.11456947     1.78800
O1667       O  0.71639757  0.72268063  0.11053060    -0.93700
O1668       O  0.98491595  0.69543919  0.11786273    -0.41600
O1669       O  0.83384320  0.67022170  0.10817890    -0.78200
O1670       O  0.86173904  0.62168269  0.11854101    -0.96900
O1671       O  0.76518726  0.57566293  0.12632756    -0.90200
O1672       O  0.73625586  0.62797692  0.11555902    -0.93000
C1673       C  0.98337669  0.81253542  0.12546360     1.00700
C1674       C  0.82545764  0.82219702  0.12291439     1.13700
C1675       C  0.86666808  0.68431568  0.14947953     1.04400
O1676       O  0.92778022  0.62542321  0.13601111    -0.95200
O1677       O  0.84218159  0.53881643  0.12742468    -0.90900
O1678       O  0.80044568  0.51909098  0.11570492    -0.84100
C1679       C  0.82458020  0.51140481  0.12124024     1.11100
O1680       O  0.69011005  0.65301490  0.13944322    -0.97200
Zr1681     Zr  0.72122743  0.61914921  0.12928654     1.88900
O1682       O  0.69712495  0.51496979  0.11450822    -0.73800
O1683       O  0.80056270  0.54220751  0.14134567    -0.53100
O1684       O  0.69373339  0.56927333  0.14138897    -0.97700
O1685       O  0.64980554  0.62753896  0.12512274    -0.55000
O1686       O  0.66246202  0.53428053  0.12478455    -0.74300
C1687       C  0.66141370  0.50404512  0.11942688     0.98000
O1688       O  0.80281522  0.55315088  0.10075866    -0.63100
O1689       O  0.83526479  0.77049485  0.10097157    -0.57900
O1690       O  0.73959218  0.59030775  0.10050484    -0.94600
O1691       O  0.74472724  0.66689169  0.10018298    -0.93000
O1692       O  0.94055814  0.76032776  0.10288798    -0.93400
O1693       O  0.93984943  0.66967328  0.10410779    -0.92200
C1694       C  0.73001711  0.62268419  0.09732656     1.16900
H1695       H  0.89148305  0.78596995  0.11648472     0.32800
H1696       H  0.87966514  0.60478040  0.11691951     0.43700
H1697       H  0.70447023  0.61356369  0.11283094     0.37200
H1698       H  0.79032353  0.65256335  0.14123075     0.33700
H1699       H  0.01342922  0.72153739  0.11474766     0.25500
H1700       H  0.82674590  0.54267358  0.14481009     0.31400
H1701       H  0.69093000  0.53659299  0.13997851     0.37300
H1702       H  0.91570651  0.74031974  0.09875849     0.31800
H1703       H  0.83644870  0.74849650  0.09679043     0.30600
H1704       H  0.72236534  0.74260886  0.10562861     0.32300
H1705       H  0.63466176  0.60415598  0.12061151     0.31300
H1706       H  0.90900210  0.64898306  0.10098489     0.35300
H1707       H  0.81453418  0.58062346  0.09680254     0.28000
H1708       H  0.89213366  0.81420725  0.14464466     0.32300
H1709       H  0.71991747  0.68529423  0.14100132     0.35100
H1710       H  0.81163489  0.78088175  0.09892022     0.27700
H1711       H  0.83381096  0.55263760  0.10218185     0.40600
H1712       H  0.94301790  0.62453655  0.13089570     0.30600
H1713       H  0.99322294  0.70701363  0.12340557     0.38300
H1714       H  0.66497434  0.66161470  0.12275227     0.30100
H1715       H  0.78079601  0.55170930  0.14485177     0.30200
H1716       H  0.83312058  0.78254603  0.14538235     0.30400
Zr1717     Zr  0.25638061  0.14590769  0.21969779     2.17500
O1718       O  0.22231667  0.09470602  0.23158451    -0.51900
O1719       O  0.18925495  0.16334806  0.21724846    -0.75100
O1720       O  0.26244661  0.19787352  0.23095044    -0.81900
O1721       O  0.20687338  0.03363080  0.20630642    -0.83600
O1722       O  0.33890262  0.26914648  0.23069601    -0.79300
O1723       O  0.18681649  0.06084712  0.21747344    -0.90900
O1724       O  0.21029997  0.21541098  0.20665571    -0.76900
O1725       O  0.30143350  0.23232314  0.21587325    -0.86400
O1726       O  0.24721276  0.14613360  0.20571292    -0.86100
O1727       O  0.34140872  0.17697687  0.22392605    -0.72800
O1728       O  0.29040391  0.09675185  0.21440544    -0.84900
Zr1729     Zr  0.41266190  0.21439802  0.20004368     2.26400
Zr1730     Zr  0.38695835  0.26287063  0.21952219     2.06300
Zr1731     Zr  0.28337399  0.09907229  0.20038601     2.10000
Zr1732     Zr  0.29240322  0.23291704  0.20201548     1.78800
O1733       O  0.29935473  0.02965094  0.19822709    -0.93700
O1734       O  0.30814551  0.31662664  0.20559146    -0.41600
O1735       O  0.32732250  0.18529190  0.19670683    -0.78200
O1736       O  0.37941013  0.26544687  0.20538034    -0.96900
O1737       O  0.42181510  0.21491287  0.21405723    -0.90200
O1738       O  0.36865389  0.12816263  0.20404958    -0.93000
C1739       C  0.18005188  0.18893205  0.21220926     1.00700
C1740       C  0.17798854  0.02723219  0.21220340     1.13700
C1741       C  0.29483832  0.24106151  0.23372644     1.04400
O1742       O  0.40630038  0.34973885  0.22114658    -0.95200
O1743       O  0.46946104  0.32541855  0.21451352    -0.90900
O1744       O  0.48181513  0.29822352  0.20265877    -0.84100
C1745       C  0.49565823  0.33025965  0.20829306     1.11100
O1746       O  0.33670860  0.07109873  0.22921246    -0.97200
Zr1747     Zr  0.37589263  0.12928990  0.21817912     1.88900
O1748       O  0.47313423  0.18493428  0.20183735    -0.73800
O1749       O  0.44020728  0.26911946  0.23063050    -0.53100
O1750       O  0.42886718  0.16134255  0.22988705    -0.97700
O1751       O  0.36650467  0.04636544  0.21591692    -0.55000
O1752       O  0.45744290  0.14676636  0.21382866    -0.74300
C1753       C  0.48441511  0.16517649  0.20762420     0.98000
O1754       O  0.46717259  0.24839191  0.18846506    -0.63100
O1755       O  0.21622168  0.05924795  0.19065490    -0.57900
O1756       O  0.38163558  0.19232769  0.18633979    -0.94600
O1757       O  0.30663287  0.11954163  0.18657663    -0.93000
O1758       O  0.23860890  0.20762695  0.19039158    -0.93400
O1759       O  0.32464193  0.28737447  0.19044296    -0.92200
C1760       C  0.34287050  0.15637207  0.18286656     1.16900
H1761       H  0.21233024  0.13045525  0.20416969     0.32800
H1762       H  0.39826100  0.29968984  0.20345051     0.43700
H1763       H  0.38191911  0.10899648  0.20151829     0.37200
H1764       H  0.34262944  0.17556629  0.22962495     0.33700
H1765       H  0.28201544  0.32029220  0.20274359     0.25500
H1766       H  0.47136782  0.30200379  0.22991227     0.31400
H1767       H  0.45411370  0.15044616  0.22933060     0.37300
H1768       H  0.23692944  0.17600376  0.18862059     0.31800
H1769       H  0.20469041  0.02275737  0.19093229     0.30600
H1770       H  0.30095683  0.02728393  0.19240525     0.32300
H1771       H  0.38910409  0.05079662  0.21142855     0.31300
H1772       H  0.34744648  0.27754309  0.18786800     0.35300
H1773       H  0.47153505  0.28232343  0.18757304     0.28000
H1774       H  0.19590099  0.10163889  0.23350831     0.32300
H1775       H  0.36247975  0.06343593  0.23119312     0.35100
H1776       H  0.18795091  0.06252524  0.19279208     0.27700
H1777       H  0.50063748  0.25468754  0.19016736     0.40600
H1778       H  0.39149919  0.35657885  0.21644311     0.30600
H1779       H  0.29828955  0.31390505  0.21122693     0.38300
H1780       H  0.33220931  0.02593261  0.21373104     0.30100
H1781       H  0.42386709  0.27393725  0.23533748     0.30200
H1782       H  0.24944242  0.11012405  0.23556994     0.30400
Zr1783     Zr  0.25781536  0.10781415  0.13186798     2.17500
O1784       O  0.19695101  0.05105028  0.14162022    -0.51900
O1785       O  0.19733359  0.13825872  0.13078141    -0.75100
O1786       O  0.27915084  0.13662145  0.14562690    -0.81900
O1787       O  0.20385783  0.99909700  0.11713613    -0.83600
O1788       O  0.35478258  0.20861814  0.14567675    -0.79300
O1789       O  0.19135907  0.02348827  0.12921563    -0.90900
O1790       O  0.21347005  0.18385860  0.11951261    -0.76900
O1791       O  0.29950316  0.19447817  0.12836786    -0.86400
O1792       O  0.24708011  0.11032035  0.11791233    -0.86100
O1793       O  0.34377059  0.13510596  0.13539459    -0.72800
O1794       O  0.29298846  0.06070286  0.12571363    -0.84900
Zr1795     Zr  0.41288607  0.18609295  0.11196271     2.26400
Zr1796     Zr  0.38462108  0.22293902  0.13207005     2.06300
Zr1797     Zr  0.28358375  0.06590547  0.11171939     2.10000
Zr1798     Zr  0.29116151  0.19675264  0.11429507     1.78800
O1799       O  0.27006535  0.98195850  0.10901372    -0.93700
O1800       O  0.30460899  0.28106832  0.11666740    -0.41600
O1801       O  0.32729748  0.15292721  0.10787474    -0.78200
O1802       O  0.37631073  0.23065989  0.11810341    -0.96900
O1803       O  0.42275426  0.18015100  0.12582782    -0.90200
O1804       O  0.36988701  0.09843885  0.11512604    -0.93000
C1805       C  0.18709109  0.16303832  0.12567051     1.00700
C1806       C  0.17833207  0.99188583  0.12353913     1.13700
C1807       C  0.31646757  0.17317296  0.14923127     1.04400
O1808       O  0.36863995  0.29225066  0.13424735    -0.95200
O1809       O  0.46164688  0.29262290  0.12714641    -0.90900
O1810       O  0.47829650  0.27261734  0.11499701    -0.84100
C1811       C  0.48758005  0.30343665  0.12077824     1.11100
O1812       O  0.34423851  0.02613278  0.13876141    -0.97200
Zr1813     Zr  0.38018666  0.09243084  0.12876291     1.88900
O1814       O  0.48370890  0.17388285  0.11393482    -0.73800
O1815       O  0.45513755  0.25842897  0.14126317    -0.53100
O1816       O  0.43192463  0.11011145  0.14053352    -0.97700
O1817       O  0.37336124  0.01507950  0.12344735    -0.55000
O1818       O  0.46579812  0.12104796  0.12433219    -0.74300
C1819       C  0.49542046  0.14979511  0.11885972     0.98000
O1820       O  0.44474050  0.23729582  0.09998712    -0.63100
O1821       O  0.22675977  0.05993972  0.10121725    -0.57900
O1822       O  0.40729839  0.13755538  0.10022578    -0.94600
O1823       O  0.33115345  0.06554130  0.10002217    -0.93000
O1824       O  0.23257237  0.16532505  0.10325687    -0.93400
O1825       O  0.32447852  0.25166998  0.10278860    -0.92200
C1826       C  0.37546500  0.09494810  0.09717229     1.16900
H1827       H  0.21190051  0.09504414  0.11656545     0.32800
H1828       H  0.39320200  0.26561017  0.11650591     0.43700
H1829       H  0.38444004  0.08119619  0.11237755     0.37200
H1830       H  0.34807620  0.12899773  0.14084611     0.33700
H1831       H  0.27681521  0.28189018  0.11384168     0.25500
H1832       H  0.45058396  0.28264927  0.14453969     0.31400
H1833       H  0.44083126  0.14477661  0.14207002     0.37300
H1834       H  0.21537359  0.18536606  0.10338005     0.31800
H1835       H  0.24872555  0.07576364  0.09656194     0.30600
H1836       H  0.24987842  0.97128772  0.10410236     0.32300
H1837       H  0.40274083  0.02597357  0.11990693     0.31300
H1838       H  0.35858185  0.25652505  0.10203013     0.35300
H1839       H  0.41685161  0.22161558  0.09613087     0.28000
H1840       H  0.18515055  0.07131427  0.14451657     0.32300
H1841       H  0.36566839  0.01043569  0.13876694     0.35100
H1842       H  0.20740357  0.02358103  0.09991751     0.27700
H1843       H  0.44695283  0.26990979  0.10124223     0.40600
H1844       H  0.38878994  0.30986644  0.13896924     0.30600
H1845       H  0.29662820  0.28125246  0.12233830     0.38300
H1846       H  0.34396140  0.00105646  0.11987350     0.30100
H1847       H  0.44880934  0.23057786  0.14491612     0.30200
H1848       H  0.21621656  0.04345280  0.14553267     0.30400
Zr1849     Zr  0.85920625  0.10887152  0.22023444     2.17500
O1850       O  0.91858741  0.12838727  0.23101189    -0.51900
O1851       O  0.84594054  0.02434625  0.21856561    -0.75100
O1852       O  0.81388272  0.07223342  0.23255968    -0.81900
O1853       O  0.96840961  0.17440040  0.20572617    -0.83600
O1854       O  0.73969009  0.07186893  0.23221395    -0.79300
O1855       O  0.94661599  0.13452483  0.21761653    -0.90900
O1856       O  0.78809501  0.98638205  0.20888372    -0.76900
O1857       O  0.77182322  0.06322886  0.21728220    -0.86400
O1858       O  0.85384583  0.09204549  0.20641086    -0.86100
O1859       O  0.82698780  0.16298144  0.22403338    -0.72800
O1860       O  0.90270067  0.18922526  0.21380082    -0.84900
Zr1861     Zr  0.77735451  0.18167769  0.20002007     2.26400
Zr1862     Zr  0.73977485  0.11796749  0.22041933     2.06300
Zr1863     Zr  0.89550361  0.17235257  0.19994835     2.10000
Zr1864     Zr  0.76614534  0.04643086  0.20357616     1.78800
O1865       O  0.96005966  0.25614576  0.19569223    -0.93700
O1866       O  0.68561644  0.97776791  0.20820843    -0.41600
O1867       O  0.80821666  0.12591443  0.19701781    -0.78200
O1868       O  0.73191286  0.10017090  0.20649480    -0.96900
O1869       O  0.78242198  0.19784346  0.21388025    -0.90200
O1870       O  0.86472711  0.22811725  0.20316127    -0.93000
C1871       C  0.81819655  0.98648756  0.21413523     1.00700
C1872       C  0.97833140  0.15793152  0.21204205     1.13700
C1873       C  0.77086849  0.06100517  0.23550343     1.04400
O1874       O  0.65577360  0.04583334  0.22229197    -0.95200
O1875       O  0.67585106  0.13674465  0.21583973    -0.90900
O1876       O  0.69245213  0.16240127  0.20306428    -0.84100
C1877       C  0.66532915  0.15092557  0.20931983     1.11100
O1878       O  0.92840925  0.26885690  0.22812792    -0.97200
Zr1879     Zr  0.86916312  0.24199668  0.21716275     1.88900
O1880       O  0.80297875  0.27169033  0.20101537    -0.73800
O1881       O  0.73159384  0.16551540  0.23130541    -0.53100
O1882       O  0.83812034  0.27191969  0.22795051    -0.97700
O1883       O  0.95155942  0.31316978  0.21383212    -0.55000
O1884       O  0.85198252  0.30408566  0.21189222    -0.74300
C1885       C  0.82840539  0.30760175  0.20594914     0.98000
O1886       O  0.73522594  0.19338460  0.18866291    -0.63100
O1887       O  0.93181163  0.13701173  0.19091445    -0.57900
O1888       O  0.79783763  0.17203452  0.18622598    -0.94600
O1889       O  0.86991015  0.16881854  0.18632652    -0.93000
O1890       O  0.79165743  0.01578959  0.19219884    -0.93400
O1891       O  0.70488837  0.01419841  0.19290514    -0.92200
C1892       C  0.83308164  0.16823303  0.18268717     1.16900
H1893       H  0.87013105  0.07313412  0.20499180     0.32800
H1894       H  0.69693372  0.08253700  0.20497220     0.43700
H1895       H  0.88193345  0.25919927  0.20019302     0.37200
H1896       H  0.83064382  0.16883507  0.22966845     0.33700
H1897       H  0.68224855  0.94721870  0.20562962     0.25500
H1898       H  0.69854877  0.14219897  0.23372121     0.31400
H1899       H  0.80416345  0.26432159  0.22627621     0.37300
H1900       H  0.81193585  0.04615469  0.18890979     0.31800
H1901       H  0.96746151  0.16357258  0.19027418     0.30600
H1902       H  0.96433134  0.25258181  0.18996768     0.32300
H1903       H  0.94590741  0.32987802  0.20925599     0.31300
H1904       H  0.70768562  0.04473598  0.19039905     0.35300
H1905       H  0.70366219  0.16083964  0.18795610     0.28000
H1906       H  0.91201901  0.09526284  0.23302063     0.32300
H1907       H  0.93419367  0.30251985  0.22968136     0.35100
H1908       H  0.93289543  0.10975561  0.19389923     0.27700
H1909       H  0.72433572  0.21730729  0.19040655     0.40600
H1910       H  0.63984679  0.05699265  0.22629632     0.30600
H1911       H  0.69084919  0.97351311  0.21386846     0.38300
H1912       H  0.97044373  0.29761629  0.21161070     0.30100
H1913       H  0.75642537  0.16838059  0.23529515     0.30200
H1914       H  0.90745795  0.14282401  0.23526176     0.30400
Zr1915     Zr  0.88940993  0.14015751  0.13183525     2.17500
O1916       O  0.94658344  0.14378708  0.14216256    -0.51900
O1917       O  0.86481265  0.05107967  0.13022075    -0.75100
O1918       O  0.85392717  0.12663781  0.14531798    -0.81900
O1919       O  0.00016628  0.19644008  0.11746930    -0.83600
O1920       O  0.78501585  0.13570550  0.14525203    -0.79300
O1921       O  0.97421854  0.15806687  0.12943560    -0.90900
O1922       O  0.81764346  0.02314402  0.11909568    -0.76900
O1923       O  0.80327142  0.09647394  0.12809908    -0.86400
O1924       O  0.88828337  0.12804932  0.11784686    -0.86100
O1925       O  0.86140071  0.19810871  0.13535559    -0.72800
O1926       O  0.93732429  0.22272629  0.12585261    -0.84900
Zr1927     Zr  0.81521395  0.22048472  0.11170015     2.26400
Zr1928     Zr  0.77451503  0.15340392  0.13163431     2.06300
Zr1929     Zr  0.93399807  0.20946961  0.11184487     2.10000
Zr1930     Zr  0.80244888  0.08668841  0.11404836     1.78800
O1931       O  0.01725701  0.28112850  0.10927605    -0.93700
O1932       O  0.71949212  0.01439477  0.11665293    -0.41600
O1933       O  0.84781467  0.16716536  0.10773906    -0.78200
O1934       O  0.76906293  0.13871491  0.11765460    -0.96900
O1935       O  0.81892916  0.23478510  0.12558924    -0.90200
O1936       O  0.90194356  0.26362345  0.11531631    -0.93000
C1937       C  0.84077797  0.01751507  0.12490083     1.00700
C1938       C  0.00674739  0.17763830  0.12387150     1.13700
C1939       C  0.81798353  0.12918273  0.14885543     1.04400
O1940       O  0.70399601  0.06916823  0.13409017    -0.95200
O1941       O  0.70592348  0.16055230  0.12625044    -0.90900
O1942       O  0.72825307  0.19993611  0.11431651    -0.84100
C1943       C  0.69619559  0.17687947  0.11991732     1.11100
O1944       O  0.96976371  0.30781299  0.13928419    -0.97200
Zr1945     Zr  0.90546248  0.27789520  0.12903769     1.88900
O1946       O  0.82771999  0.30354701  0.11394420    -0.73800
O1947       O  0.74256522  0.19451365  0.14032521    -0.53100
O1948       O  0.87953206  0.30204097  0.14112550    -0.97700
O1949       O  0.98433931  0.35065907  0.12472790    -0.55000
O1950       O  0.87847775  0.33584404  0.12461611    -0.74300
C1951       C  0.85085108  0.33796279  0.11911572     0.98000
O1952       O  0.76756224  0.20110307  0.09940103    -0.63100
O1953       O  0.94147261  0.16001337  0.10120366    -0.57900
O1954       O  0.86613574  0.26575637  0.10024786    -0.94600
O1955       O  0.93614223  0.25820630  0.10018298    -0.93000
O1956       O  0.83346311  0.06071007  0.10276609    -0.93400
O1957       O  0.74417587  0.06252077  0.10300242    -0.92200
C1958       C  0.90836202  0.27467170  0.09724879     1.16900
H1959       H  0.90365803  0.10821331  0.11646294     0.32800
H1960       H  0.73459011  0.12099661  0.11589062     0.43700
H1961       H  0.92029872  0.29592024  0.11271024     0.37200
H1962       H  0.86650667  0.20719543  0.14086669     0.33700
H1963       H  0.72003453  0.98553103  0.11411506     0.25500
H1964       H  0.71683064  0.16716206  0.14366239     0.31400
H1965       H  0.89218229  0.33863393  0.14055589     0.37300
H1966       H  0.81766080  0.02364261  0.10327447     0.31800
H1967       H  0.91440934  0.15430286  0.09745410     0.30600
H1968       H  0.02920218  0.27168249  0.10448249     0.32300
H1969       H  0.97476393  0.36924698  0.12098024     0.31300
H1970       H  0.75284748  0.09474625  0.10036724     0.35300
H1971       H  0.78353997  0.18751784  0.09583473     0.28000
H1972       H  0.92800523  0.11218022  0.14524875     0.32300
H1973       H  0.97972591  0.34355081  0.14020032     0.35100
H1974       H  0.97289579  0.18382019  0.09841049     0.27700
H1975       H  0.73427487  0.17147819  0.10058901     0.40600
H1976       H  0.68773398  0.07263827  0.13892295     0.30600
H1977       H  0.71921645  0.00795650  0.12239566     0.38300
H1978       H  0.00070470  0.33635670  0.12140195     0.30100
H1979       H  0.77060579  0.21517821  0.14397470     0.30200
H1980       H  0.95089174  0.17102934  0.14579268     0.30400
Zr1981     Zr  0.48056804  0.55289306  0.03373651     2.17500
O1982       O  0.47713183  0.60814813  0.02364069    -0.51900
O1983       O  0.39047834  0.52485465  0.03533507    -0.75100
O1984       O  0.47131443  0.52062563  0.02010727    -0.81900
O1985       O  0.53682492  0.66468132  0.04816387    -0.83600
O1986       O  0.47986678  0.45128942  0.02012781    -0.79300
O1987       O  0.49777583  0.63763387  0.03627763    -0.90900
O1988       O  0.36112209  0.47547453  0.04626081    -0.76900
O1989       O  0.43740617  0.46639953  0.03742440    -0.86400
O1990       O  0.46872778  0.55165698  0.04771611    -0.86100
O1991       O  0.53955859  0.52579213  0.03027119    -0.72800
O1992       O  0.56324380  0.60130969  0.03958878    -0.84900
Zr1993     Zr  0.56137824  0.47891276  0.05373496     2.26400
Zr1994     Zr  0.49488386  0.43817561  0.03383531     2.06300
Zr1995     Zr  0.55026800  0.59825171  0.05359054     2.10000
Zr1996     Zr  0.42758528  0.46543300  0.05149394     1.78800
O1997       O  0.62393713  0.68168797  0.05500281    -0.93700
O1998       O  0.36378846  0.37835663  0.04876772    -0.41600
O1999       O  0.50806452  0.51161307  0.05765688    -0.78200
O2000       O  0.47999361  0.43261696  0.04783870    -0.96900
O2001       O  0.57596541  0.48290326  0.03986936    -0.90200
O2002       O  0.60480207  0.56629508  0.05027828    -0.93000
C2003       C  0.35554091  0.49807238  0.04036329     1.00700
C2004       C  0.51722620  0.67035082  0.04180041     1.13700
C2005       C  0.47460677  0.48522117  0.01651328     1.04400
O2006       O  0.41148019  0.36737338  0.03111186    -0.95200
O2007       O  0.50097840  0.36850584  0.03936242    -0.90900
O2008       O  0.54149881  0.39224764  0.05117297    -0.84100
C2009       C  0.51803677  0.35955755  0.04570438     1.11100
O2010       O  0.64704904  0.63362331  0.02614973    -0.97200
Zr2011     Zr  0.61920973  0.56998851  0.03654927     1.88900
O2012       O  0.64442242  0.49122334  0.05145503    -0.73800
O2013       O  0.53657438  0.40628472  0.02525808    -0.53100
O2014       O  0.64672847  0.54493088  0.02473751    -0.97700
O2015       O  0.69127708  0.64960375  0.04073406    -0.55000
O2016       O  0.67801257  0.54383219  0.04097446    -0.74300
C2017       C  0.67946817  0.51507273  0.04637840     0.98000
O2018       O  0.54114437  0.42774604  0.06573966    -0.63100
O2019       O  0.50424605  0.61128507  0.06420449    -0.57900
O2020       O  0.60293560  0.52796718  0.06540565    -0.94600
O2021       O  0.59512996  0.59805192  0.06555871    -0.93000
O2022       O  0.39444185  0.49356580  0.06221366    -0.93400
O2023       O  0.40674100  0.41446967  0.06346752    -0.92200
C2024       C  0.61063858  0.56948078  0.06852168     1.20500
H2025       H  0.44853865  0.56664468  0.04909283     0.32800
H2026       H  0.46250674  0.39806961  0.04963486     0.43700
H2027       H  0.63670618  0.58453193  0.05295805     0.37200
H2028       H  0.54963065  0.53166119  0.02480125     0.33700
H2029       H  0.33551532  0.37116655  0.05236733     0.25500
H2030       H  0.50903674  0.37783195  0.02235683     0.31400
H2031       H  0.64004967  0.51042336  0.02589926     0.37300
H2032       H  0.35773757  0.46968657  0.06221772     0.31800
H2033       H  0.50378766  0.58966314  0.06859592     0.30600
H2034       H  0.61564220  0.69740341  0.05943291     0.32300
H2035       H  0.70956158  0.64043410  0.04459701     0.31300
H2036       H  0.43907083  0.42754726  0.06629924     0.35300
H2037       H  0.53155295  0.44506071  0.06973516     0.28000
H2038       H  0.44560853  0.58743765  0.02066479     0.32300
H2039       H  0.68276102  0.64416660  0.02515039     0.35100
H2040       H  0.52707259  0.64616759  0.06603370     0.27700
H2041       H  0.50907440  0.39652143  0.06460109     0.40600
H2042       H  0.41549334  0.35252158  0.02615653     0.30600
H2043       H  0.35112087  0.37920260  0.04342430     0.38300
H2044       H  0.67672936  0.66628873  0.04392058     0.30100
H2045       H  0.55432567  0.43278528  0.02120892     0.30200
H2046       H  0.50464050  0.61546044  0.01986204     0.30400
Zr2047     Zr  0.45827908  0.52547211  0.94530043     2.17500
O2048       O  0.47867146  0.57662736  0.93334978    -0.51900
O2049       O  0.37667220  0.51709517  0.94746214    -0.75100
O2050       O  0.41344644  0.47355098  0.93391358    -0.81900
O2051       O  0.52685196  0.63888691  0.95840625    -0.83600
O2052       O  0.41466535  0.40034647  0.93439735    -0.79300
O2053       O  0.48232335  0.61312516  0.94696280    -0.90900
O2054       O  0.34300774  0.46858232  0.95843780    -0.76900
O2055       O  0.41143374  0.43959472  0.94925493    -0.86400
O2056       O  0.44715453  0.52723787  0.95925017    -0.86100
O2057       O  0.50928777  0.48992706  0.94158475    -0.72800
O2058       O  0.54054601  0.57028664  0.95100787    -0.84900
Zr2059     Zr  0.53464825  0.44857023  0.96570434     2.26400
Zr2060     Zr  0.46316341  0.40431507  0.94605711     2.06300
Zr2061     Zr  0.52911386  0.56958069  0.96499950     2.10000
Zr2062     Zr  0.40018550  0.44083922  0.96307045     1.78800
O2063       O  0.61562616  0.63378687  0.96788528    -0.93700
O2064       O  0.32688342  0.36187959  0.95905778    -0.41600
O2065       O  0.48214444  0.48331376  0.96862134    -0.78200
O2066       O  0.45071176  0.40276662  0.96011668    -0.96900
O2067       O  0.54555981  0.44743381  0.95175968    -0.90200
O2068       O  0.58148880  0.53486941  0.96177465    -0.93000
C2069       C  0.34213915  0.49556504  0.95269402     1.00700
C2070       C  0.50817707  0.64673302  0.95215257     1.13700
C2071       C  0.40161378  0.42989968  0.93112106     1.04400
O2072       O  0.38839957  0.32171791  0.94465626    -0.95200
O2073       O  0.47598525  0.33736129  0.95099441    -0.90900
O2074       O  0.51305789  0.36207651  0.96302346    -0.84100
C2075       C  0.49389675  0.33006360  0.95738018     1.11100
O2076       O  0.61589111  0.58849057  0.93615225    -0.97200
Zr2077     Zr  0.59048822  0.53337211  0.94770903     1.88900
O2078       O  0.62489324  0.47528411  0.96453252    -0.73800
O2079       O  0.50683194  0.39188473  0.93502822    -0.53100
O2080       O  0.61421053  0.49711542  0.93685242    -0.97700
O2081       O  0.66274691  0.61676693  0.95015265    -0.55000
O2082       O  0.65394292  0.51812955  0.95300583    -0.74300
C2083       C  0.65956994  0.49822630  0.95927866     0.98000
O2084       O  0.54895086  0.40894378  0.97716986    -0.63100
O2085       O  0.50308456  0.61469196  0.97397884    -0.57900
O2086       O  0.52510912  0.47197740  0.97931399    -0.94600
O2087       O  0.52438961  0.54554687  0.97890785    -0.93000
O2088       O  0.37486474  0.46913844  0.97475981    -0.93400
O2089       O  0.37132104  0.38324417  0.97431201    -0.92200
C2090       C  0.52186893  0.50800369  0.98272541     1.16900
H2091       H  0.43014333  0.54549924  0.96063624     0.32800
H2092       H  0.43290858  0.36846488  0.96204339     0.43700
H2093       H  0.61333022  0.55245250  0.96448515     0.37200
H2094       H  0.51315777  0.49094996  0.93590457     0.33700
H2095       H  0.29923811  0.35885818  0.96246254     0.25500
H2096       H  0.53790444  0.39530797  0.93736949     0.31400
H2097       H  0.65134807  0.51388906  0.93708084     0.37300
H2098       H  0.40687231  0.49466811  0.97719743     0.31800
H2099       H  0.53035159  0.65036481  0.97382659     0.30600
H2100       H  0.61309056  0.66113478  0.97057122     0.32300
H2101       H  0.67472407  0.61501549  0.95550888     0.31300
H2102       H  0.40103194  0.39585372  0.97780859     0.35300
H2103       H  0.51608908  0.37855588  0.97830974     0.28000
H2104       H  0.44590067  0.56882165  0.93106190     0.32300
H2105       H  0.65057413  0.59636073  0.93488614     0.35100
H2106       H  0.47407289  0.61451819  0.97140448     0.27700
H2107       H  0.57064859  0.39571632  0.97527770     0.40600
H2108       H  0.36906122  0.31699533  0.94958205     0.30600
H2109       H  0.31841910  0.36852864  0.95371011     0.38300
H2110       H  0.64832366  0.63915441  0.95076197     0.30100
H2111       H  0.48616135  0.35557993  0.93375321     0.30200
H2112       H  0.49257107  0.56177094  0.92962059     0.30400
Zr2113     Zr  0.08407882  0.52331820  0.03361821     2.17500
O2114       O  0.13893862  0.51721117  0.02374711    -0.51900
O2115       O  0.14877240  0.61297007  0.03471191    -0.75100
O2116       O  0.06338190  0.53215398  0.01985917    -0.81900
O2117       O  0.13900252  0.47247285  0.04893284    -0.83600
O2118       O  0.98504702  0.52205771  0.01951722    -0.79300
O2119       O  0.15156200  0.50812806  0.03671934    -0.90900
O2120       O  0.13364867  0.64269942  0.04607259    -0.76900
O2121       O  0.04113248  0.56793304  0.03645446    -0.86400
O2122       O  0.09466783  0.54012805  0.04748093    -0.86100
O2123       O  0.99847800  0.46357920  0.03024492    -0.72800
O2124       O  0.04959890  0.44272514  0.04030508    -0.84900
Zr2125     Zr  0.92932502  0.44895841  0.05367261     2.26400
Zr2126     Zr  0.95558581  0.50906948  0.03312392     2.06300
Zr2127     Zr  0.05929452  0.46100165  0.05418380     2.10000
Zr2128     Zr  0.05021552  0.58315267  0.05039137     1.78800
O2129       O  0.07542812  0.39361269  0.05794698    -0.93700
O2130       O  0.04305349  0.65428011  0.04555215    -0.41600
O2131       O  0.01508265  0.50469878  0.05743443    -0.78200
O2132       O  0.96481034  0.52858180  0.04696838    -0.96900
O2133       O  0.91929361  0.43015782  0.03992119    -0.90200
O2134       O  0.97319159  0.40459865  0.05088411    -0.93000
C2135       C  0.16102170  0.64675640  0.04011202     1.00700
C2136       C  0.16484272  0.49094895  0.04254699     1.13700
C2137       C  0.02499981  0.52801994  0.01610605     1.04400
O2138       O  0.96627484  0.59073839  0.02946147    -0.95200
O2139       O  0.87956943  0.50403854  0.03816388    -0.90900
O2140       O  0.86180653  0.46592329  0.05022656    -0.84100
C2141       C  0.85282936  0.48777719  0.04445991     1.11100
O2142       O  0.99897604  0.35471830  0.02746517    -0.97200
Zr2143     Zr  0.96273499  0.38590614  0.03725193     1.88900
O2144       O  0.85783912  0.36546953  0.05184873    -0.73800
O2145       O  0.88322015  0.46187210  0.02454256    -0.53100
O2146       O  0.91281262  0.35631639  0.02521138    -0.97700
O2147       O  0.96740057  0.31361048  0.04225557    -0.55000
O2148       O  0.87642336  0.33033709  0.04148091    -0.74300
C2149       C  0.84650937  0.33016191  0.04681717     0.98000
O2150       O  0.89919592  0.47498004  0.06510346    -0.63100
O2151       O  0.11506040  0.51693273  0.06440404    -0.57900
O2152       O  0.93552481  0.41002136  0.06590980    -0.94600
O2153       O  0.01268963  0.41654294  0.06611853    -0.93000
O2154       O  0.09943918  0.61417615  0.06246644    -0.93400
O2155       O  0.01237830  0.61342166  0.06001896    -0.92200
C2156       C  0.96895205  0.40216634  0.06912459     1.16900
H2157       H  0.12977610  0.55998040  0.04887164     0.32800
H2158       H  0.94746013  0.54637031  0.04842148     0.43700
H2159       H  0.95931805  0.37335953  0.05380611     0.37200
H2160       H  0.99495697  0.45269475  0.02482350     0.33700
H2161       H  0.07016884  0.68403306  0.04828734     0.25500
H2162       H  0.88363377  0.48722847  0.02086215     0.31400
H2163       H  0.88220499  0.35831905  0.02632753     0.37300
H2164       H  0.12242795  0.65062383  0.06153078     0.31800
H2165       H  0.09273017  0.52205060  0.06804670     0.30600
H2166       H  0.09660884  0.40617852  0.06274178     0.32300
H2167       H  0.93661148  0.29408663  0.04547440     0.31300
H2168       H  0.98776095  0.58279072  0.06291374     0.35300
H2169       H  0.92785368  0.48943792  0.06882616     0.28000
H2170       H  0.15308230  0.54857346  0.02057080     0.32300
H2171       H  0.97336977  0.31891078  0.02659028     0.35100
H2172       H  0.12529777  0.49595583  0.06745312     0.27700
H2173       H  0.89705957  0.50467129  0.06333514     0.40600
H2174       H  0.94395591  0.58366333  0.02484405     0.30600
H2175       H  0.05417200  0.65866759  0.03996456     0.38300
H2176       H  0.99517900  0.32786428  0.04614143     0.30100
H2177       H  0.89208064  0.44084222  0.02121854     0.30200
H2178       H  0.11662084  0.48977875  0.02010784     0.30400
Zr2179     Zr  0.08654985  0.55173203  0.94521573     2.17500
O2180       O  0.11730969  0.53101649  0.93330086    -0.51900
O2181       O  0.15668844  0.63543101  0.94721358    -0.75100
O2182       O  0.08073356  0.59665286  0.93388482    -0.81900
O2183       O  0.14185557  0.49959659  0.95918494    -0.83600
O2184       O  0.00561680  0.59403861  0.93422451    -0.79300
O2185       O  0.15570944  0.53668835  0.94708917    -0.90900
O2186       O  0.13908205  0.66874376  0.95786911    -0.76900
O2187       O  0.04582117  0.59686297  0.94918455    -0.86400
O2188       O  0.09872211  0.56239758  0.95916029    -0.86100
O2189       O  0.00053484  0.50023228  0.94135338    -0.72800
O2190       O  0.05157128  0.46864245  0.95068577    -0.84900
Zr2191     Zr  0.93320120  0.47133920  0.96534052     2.26400
Zr2192     Zr  0.95923695  0.54464746  0.94585838     2.06300
Zr2193     Zr  0.06057613  0.47939699  0.96468497     2.10000
Zr2194     Zr  0.05727247  0.60714908  0.96301819     1.78800
O2195       O  0.03904289  0.39142202  0.96558127    -0.93700
O2196       O  0.04787280  0.67999935  0.96015628    -0.41600
O2197       O  0.01976852  0.52474506  0.96850078    -0.78200
O2198       O  0.96952157  0.55560905  0.95989986    -0.96900
O2199       O  0.92220622  0.46147939  0.95136613    -0.90200
O2200       O  0.97397605  0.42589468  0.96135539    -0.93000
C2201       C  0.16806762  0.67071908  0.95223236     1.00700
C2202       C  0.16826381  0.51865472  0.95291232     1.13700
C2203       C  0.04905728  0.60825302  0.93111627     1.04400
O2204       O  0.95354548  0.62109634  0.94544033    -0.95200
O2205       O  0.87876427  0.52949138  0.95117935    -0.90900
O2206       O  0.86854530  0.49377811  0.96331861    -0.84100
C2207       C  0.85453025  0.51218823  0.95771316     1.11100
O2208       O  0.00115850  0.39678332  0.93615328    -0.97200
Zr2209     Zr  0.96497519  0.41836503  0.94727072     1.88900
O2210       O  0.87142965  0.38132010  0.96384807    -0.73800
O2211       O  0.90192713  0.50452017  0.93483581    -0.53100
O2212       O  0.90909086  0.39452046  0.93591040    -0.97700
O2213       O  0.97177647  0.34330174  0.94950919    -0.55000
O2214       O  0.88488767  0.35455648  0.95207400    -0.74300
C2215       C  0.85933752  0.34813015  0.95836503     0.98000
O2216       O  0.87021557  0.44949338  0.97573174    -0.63100
O2217       O  0.12029344  0.48535168  0.97469749    -0.57900
O2218       O  0.96628710  0.48061073  0.97892203    -0.94600
O2219       O  0.04128979  0.48332931  0.97860569    -0.93000
O2220       O  0.11384701  0.63173710  0.97429439    -0.93400
O2221       O  0.02658121  0.63146733  0.97452783    -0.92200
C2222       C  0.00539724  0.48424831  0.98237872     1.16900
H2223       H  0.13388982  0.58100439  0.96055832     0.32800
H2224       H  0.95270021  0.57287456  0.96188950     0.43700
H2225       H  0.95974347  0.39370010  0.96400756     0.37200
H2226       H  0.99832662  0.49697523  0.93566574     0.33700
H2227       H  0.08032807  0.70952111  0.96171832     0.25500
H2228       H  0.89424703  0.53043056  0.93289446     0.31400
H2229       H  0.89550739  0.35777996  0.93532188     0.37300
H2230       H  0.11687976  0.60167506  0.97545833     0.31800
H2231       H  0.13379089  0.46370469  0.97287877     0.30600
H2232       H  0.05562712  0.38635348  0.96092798     0.32300
H2233       H  0.94657128  0.31748285  0.94592990     0.31300
H2234       H  0.99875248  0.59929071  0.97660484     0.35300
H2235       H  0.87107070  0.42294849  0.97896203     0.28000
H2236       H  0.14483791  0.56363456  0.93130098     0.32300
H2237       H  0.02811081  0.42959241  0.93412055     0.35100
H2238       H  0.14886351  0.52031435  0.97436023     0.27700
H2239       H  0.88312469  0.47931109  0.97923439     0.40600
H2240       H  0.93836460  0.62013803  0.94023749     0.30600
H2241       H  0.04757422  0.68184211  0.95431343     0.38300
H2242       H  0.95794391  0.33133353  0.95487211     0.30100
H2243       H  0.92284068  0.50188887  0.93060752     0.30200
H2244       H  0.09006241  0.52040429  0.92936056     0.30400
Zr2245     Zr  0.45481163  0.92606651  0.03300219     2.17500
O2246       O  0.39532509  0.87237007  0.02291209    -0.51900
O2247       O  0.48135178  0.86248461  0.03393579    -0.75100
O2248       O  0.48781049  0.95003684  0.01943321    -0.81900
O2249       O  0.35303402  0.86262263  0.04874373    -0.83600
O2250       O  0.55713558  0.02800398  0.01977222    -0.79300
O2251       O  0.37158362  0.85644433  0.03592415    -0.90900
O2252       O  0.53072173  0.87981082  0.04479216    -0.76900
O2253       O  0.54185169  0.97025866  0.03619104    -0.86400
O2254       O  0.46005383  0.91366112  0.04680998    -0.86100
O2255       O  0.48068701  0.01266834  0.03001388    -0.72800
O2256       O  0.40737458  0.95862762  0.03969674    -0.84900
Zr2257     Zr  0.53017409  0.07734135  0.05394377     2.26400
Zr2258     Zr  0.56836389  0.05662991  0.03336349     2.06300
Zr2259     Zr  0.41394086  0.94632170  0.05354392     2.10000
Zr2260     Zr  0.54666364  0.95890724  0.05007696     1.78800
O2261       O  0.32717004  0.92735457  0.05467729    -0.93700
O2262       O  0.62914432  0.97461291  0.04581334    -0.41600
O2263       O  0.50090444  0.99078198  0.05720015    -0.78200
O2264       O  0.57690083  0.04521511  0.04716341    -0.96900
O2265       O  0.52386155  0.09051197  0.04020619    -0.90200
O2266       O  0.44301218  0.03293743  0.05066973    -0.93000
C2267       C  0.50638724  0.85200101  0.03894541     1.00700
C2268       C  0.34401169  0.83907562  0.04212166     1.13700
C2269       C  0.52373611  0.98922731  0.01603654     1.04400
O2270       O  0.64375077  0.05201366  0.03058202    -0.95200
O2271       O  0.63517102  0.13469113  0.03872057    -0.90900
O2272       O  0.61365954  0.14871631  0.05094441    -0.84100
C2273       C  0.64414371  0.16100321  0.04503286     1.11100
O2274       O  0.36902178  0.01302073  0.02744054    -0.97200
Zr2275     Zr  0.43694183  0.04624794  0.03709861     1.88900
O2276       O  0.51572673  0.14748830  0.05265957    -0.73800
O2277       O  0.59090125  0.12726060  0.02441739    -0.53100
O2278       O  0.45996026  0.09857865  0.02522864    -0.97700
O2279       O  0.35827361  0.03740992  0.04207719    -0.55000
O2280       O  0.46332890  0.13007845  0.04223367    -0.74300
C2281       C  0.49149215  0.15922295  0.04776765     0.98000
O2282       O  0.58402226  0.10347186  0.06559718    -0.63100
O2283       O  0.40983098  0.89367546  0.06463529    -0.57900
O2284       O  0.48068646  0.06685726  0.06589206    -0.94600
O2285       O  0.40947687  0.98987990  0.06541064    -0.93000
O2286       O  0.52127574  0.90036896  0.06116438    -0.93400
O2287       O  0.60811881  0.99171511  0.06071779    -0.92200
C2288       C  0.43775613  0.03305638  0.06867537     1.16900
H2289       H  0.44593878  0.87831899  0.04804543     0.32800
H2290       H  0.61179840  0.06337708  0.04871970     0.43700
H2291       H  0.42455465  0.04570963  0.05354640     0.37200
H2292       H  0.47492637  0.01735821  0.02454737     0.33700
H2293       H  0.63326812  0.94794495  0.04841869     0.25500
H2294       H  0.61378654  0.12563549  0.02044690     0.31400
H2295       H  0.46429596  0.13138224  0.02696331     0.37300
H2296       H  0.54188060  0.88391486  0.06066096     0.31800
H2297       H  0.37507310  0.87913306  0.06667829     0.30600
H2298       H  0.31335409  0.90409120  0.05924597     0.32300
H2299       H  0.36808880  0.06541182  0.04586828     0.31300
H2300       H  0.59297465  0.00351776  0.06475529     0.35300
H2301       H  0.56772351  0.07443263  0.06927171     0.28000
H2302       H  0.41104849  0.85450343  0.02037911     0.32300
H2303       H  0.36098684  0.04019464  0.02656054     0.35100
H2304       H  0.41083832  0.86480611  0.06219890     0.27700
H2305       H  0.61499739  0.10371470  0.06388469     0.40600
H2306       H  0.66689944  0.08446818  0.02796754     0.30600
H2307       H  0.62514540  0.96549982  0.04013864     0.38300
H2308       H  0.34347930  0.00666140  0.04539943     0.30100
H2309       H  0.55970705  0.11826160  0.02147254     0.30200
H2310       H  0.39473828  0.89504125  0.01878969     0.30400
Zr2311     Zr  0.48300365  0.92174288  0.94502085     2.17500
O2312       O  0.42309308  0.88150262  0.93431842    -0.51900
O2313       O  0.49974598  0.85337604  0.94670921    -0.75100
O2314       O  0.52918469  0.92972623  0.93287565    -0.81900
O2315       O  0.37518131  0.87363994  0.95963631    -0.83600
O2316       O  0.60034150  0.00647313  0.93280344    -0.79300
O2317       O  0.39700253  0.85635989  0.94769439    -0.90900
O2318       O  0.55597671  0.87364339  0.95664803    -0.76900
O2319       O  0.57049948  0.96695995  0.94795246    -0.86400
O2320       O  0.48859142  0.91109163  0.95886654    -0.86100
O2321       O  0.51156120  0.00690568  0.94095019    -0.72800
O2322       O  0.43702635  0.95568123  0.95138701    -0.84900
Zr2323     Zr  0.55990648  0.07778456  0.96463635     2.26400
Zr2324     Zr  0.59890157  0.05282628  0.94445246     2.06300
Zr2325     Zr  0.44525703  0.94787678  0.96527631     2.10000
Zr2326     Zr  0.57607052  0.95612018  0.96171143     1.78800
O2327       O  0.37614437  0.96130319  0.96897028    -0.93700
O2328       O  0.65731415  0.96596300  0.95808896    -0.41600
O2329       O  0.53275708  0.99239451  0.96819382    -0.78200
O2330       O  0.60697732  0.04314614  0.95835500    -0.96900
O2331       O  0.55360119  0.08770541  0.95079029    -0.90200
O2332       O  0.47232507  0.03336971  0.96173662    -0.93000
C2333       C  0.52662163  0.84342451  0.95131449     1.00700
C2334       C  0.36540687  0.84747817  0.95330971     1.13700
C2335       C  0.57097767  0.96294060  0.92975548     1.04400
O2336       O  0.68258966  0.07029052  0.94071152    -0.95200
O2337       O  0.66674099  0.13309621  0.94947894    -0.90900
O2338       O  0.64381803  0.14507335  0.96170496    -0.84100
C2339       C  0.67480212  0.15829533  0.95592692     1.11100
O2340       O  0.40735406  0.00685532  0.93673121    -0.97200
Zr2341     Zr  0.46642502  0.04088314  0.94771846     1.88900
O2342       O  0.52826598  0.13696001  0.96387366    -0.73800
O2343       O  0.59936817  0.10808388  0.93404999    -0.53100
O2344       O  0.49219287  0.09859137  0.93649805    -0.97700
O2345       O  0.38240193  0.02303876  0.95152668    -0.55000
O2346       O  0.48172767  0.12026929  0.95273108    -0.74300
C2347       C  0.50363694  0.14723447  0.95878339     0.98000
O2348       O  0.61424034  0.14407348  0.97383301    -0.63100
O2349       O  0.41274815  0.87806618  0.97468163    -0.57900
O2350       O  0.53968775  0.05104148  0.97852481    -0.94600
O2351       O  0.47037532  0.97322228  0.97885838    -0.93000
O2352       O  0.54976399  0.90206580  0.97336585    -0.93400
O2353       O  0.63728786  0.99119864  0.97236260    -0.92200
C2354       C  0.50655305  0.01167701  0.98226382     1.16900
H2355       H  0.47325525  0.87595482  0.96032344     0.32800
H2356       H  0.64187069  0.06141878  0.95991077     0.43700
H2357       H  0.45428634  0.04618790  0.96472065     0.37200
H2358       H  0.50762322  0.00832381  0.93530451     0.33700
H2359       H  0.65631215  0.93511305  0.96010899     0.25500
H2360       H  0.60471429  0.13877053  0.93684875     0.31400
H2361       H  0.47146594  0.11498632  0.93685625     0.37300
H2362       H  0.51795426  0.90011991  0.97505517     0.31800
H2363       H  0.37618346  0.86550762  0.97504629     0.30600
H2364       H  0.37083592  0.95312995  0.97468076     0.32300
H2365       H  0.38673981  0.04096741  0.95658871     0.31300
H2366       H  0.62546113  0.00980953  0.97569524     0.35300
H2367       H  0.59167686  0.15232661  0.97685410     0.28000
H2368       H  0.42831073  0.85376827  0.93248297     0.32300
H2369       H  0.39278604  0.02915042  0.93617779     0.35100
H2370       H  0.41542321  0.85083154  0.97197842     0.27700
H2371       H  0.62645631  0.12831425  0.97768896     0.40600
H2372       H  0.68854708  0.04714280  0.94402610     0.30600
H2373       H  0.65606584  0.96219350  0.95226665     0.38300
H2374       H  0.36428021  0.98685055  0.95297902     0.30100
H2375       H  0.63124939  0.11895068  0.93115991     0.30200
H2376       H  0.43506232  0.90638479  0.92995437     0.30400
C2377       C  0.50135840  0.96015351  0.99394093    -0.20900
C2378       C  0.51257428  0.00752422  0.99090985    -0.07500
C2379       C  0.52998633  0.04882354  0.99614478     0.13400
C2380       C  0.53517567  0.04150516  0.00420522    -0.20900
C2381       C  0.52296590  0.99393647  0.00727962    -0.07500
C2382       C  0.50622648  0.95276316  0.00202712     0.13400
C2383       C  0.49455278  0.90131507  0.00482037    -0.24300
H2384       H  0.48890488  0.92853972  0.98992786     0.14700
H2385       H  0.54729554  0.07314253  0.00819680     0.14700
C2386       C  0.54132025  0.10024731  0.99339531    -0.24200
H2387       H  0.48554258  0.87469761  0.99981282     0.04900
H2388       H  0.46143285  0.88507814  0.00879382     0.08200
H2389       H  0.52749564  0.90412315  0.00798481     0.08200
H2390       H  0.50841538  0.09743151  0.99021514     0.08100
H2391       H  0.57462821  0.11657623  0.98947052     0.08100
H2392       H  0.55009042  0.12673737  0.99841449     0.04900
C2393       C  0.81397501  0.25581248  0.95651259    -0.20900
C2394       C  0.81263336  0.29884202  0.95904615    -0.07500
C2395       C  0.76592865  0.29471373  0.96093832     0.13400
C2396       C  0.72172527  0.24814129  0.95993549    -0.20900
C2397       C  0.72290782  0.20594129  0.95693543    -0.07500
C2398       C  0.76976535  0.20946144  0.95543419     0.13400
C2399       C  0.77351376  0.16445646  0.95281774    -0.24300
H2400       H  0.84992706  0.25893459  0.95513521     0.14700
H2401       H  0.68587110  0.24499821  0.96130230     0.14700
C2402       C  0.76217143  0.33968017  0.96358538    -0.24200
H2403       H  0.81319421  0.17321117  0.95246272     0.04900
H2404       H  0.75685813  0.15247344  0.94685685     0.08200
H2405       H  0.75344610  0.13296732  0.95708517     0.08200
H2406       H  0.77895208  0.36977670  0.95902343     0.08100
H2407       H  0.78230827  0.35413666  0.96927039     0.08100
H2408       H  0.72251213  0.33000264  0.96449911     0.04900
C2409       C  0.22390707  0.76186470  0.95460593    -0.20900
C2410       C  0.21833691  0.71647468  0.95167703    -0.07500
C2411       C  0.26131552  0.71538569  0.94883948     0.13400
C2412       C  0.30842262  0.75938191  0.94919236    -0.20900
C2413       C  0.31417859  0.80387122  0.95250323    -0.07500
C2414       C  0.27113970  0.80547153  0.95509926     0.13400
C2415       C  0.27421066  0.85303704  0.95825358    -0.24300
H2416       H  0.19105512  0.76306095  0.95665822     0.14700
H2417       H  0.34129272  0.75857296  0.94709495     0.14700
C2418       C  0.25881346  0.66788739  0.94577844    -0.24200
H2419       H  0.23634252  0.84815967  0.95933599     0.04900
H2420       H  0.29384978  0.88416997  0.95391646     0.08200
H2421       H  0.29444491  0.86360429  0.96397866     0.08200
H2422       H  0.23581315  0.65508860  0.94031668     0.08100
H2423       H  0.24240579  0.63791623  0.95036514     0.08100
H2424       H  0.29662643  0.67387457  0.94426322     0.04900
C2425       C  0.76903912  0.27598067  0.03948506    -0.20900
C2426       C  0.79427676  0.28789920  0.04673097    -0.07500
C2427       C  0.76881494  0.26060085  0.05358501     0.13400
C2428       C  0.71907589  0.22043799  0.05292339    -0.20900
C2429       C  0.69425350  0.20727204  0.04558523    -0.07500
C2430       C  0.71934307  0.23660968  0.03881686     0.13400
C2431       C  0.69404173  0.22783263  0.03087648    -0.24300
H2432       H  0.78839289  0.29806145  0.03429286     0.14700
H2433       H  0.70007411  0.19824954  0.05811836     0.14700
C2434       C  0.79454301  0.27236187  0.06151280    -0.24200
H2435       H  0.71733427  0.25820721  0.02659009     0.04900
H2436       H  0.65762107  0.22694795  0.03152891     0.08200
H2437       H  0.68807693  0.19200285  0.02829695     0.08200
H2438       H  0.80450659  0.31096392  0.06339262     0.08100
H2439       H  0.82921479  0.26965074  0.06112531     0.08100
H2440       H  0.76994088  0.24572124  0.06615648     0.04900
C2441       C  0.23986498  0.70556484  0.04680892    -0.20900
C2442       C  0.21072023  0.69314607  0.03991066    -0.07500
C2443       C  0.22679062  0.72776743  0.03358497     0.13400
C2444       C  0.27086679  0.77483752  0.03443205    -0.20900
C2445       C  0.29874761  0.78829350  0.04150319    -0.07500
C2446       C  0.28365071  0.75248012  0.04769625     0.13400
C2447       C  0.31374244  0.76277497  0.05519745    -0.24300
H2448       H  0.22749846  0.67855772  0.05162930     0.14700
H2449       H  0.28276285  0.80191061  0.02963209     0.14700
C2450       C  0.19637282  0.71613374  0.02612088    -0.24200
H2451       H  0.29822934  0.72905348  0.05909576     0.04900
H2452       H  0.31302065  0.79335950  0.05859904     0.08200
H2453       H  0.35317747  0.77367898  0.05374134     0.08200
H2454       H  0.15801898  0.70894403  0.02754186     0.08100
H2455       H  0.19362843  0.68228214  0.02324315     0.08100
H2456       H  0.21377453  0.74786330  0.02183362     0.04900
C2457       C  0.04471303  0.49461761  0.00411316    -0.20900
C2458       C  0.02383248  0.52236814  0.00734107    -0.07500
C2459       C  0.99742177  0.53788865  0.00227719     0.13400
C2460       C  0.99154214  0.52405959  0.99424364    -0.20900
C2461       C  0.01164297  0.49544494  0.99103861    -0.07500
C2462       C  0.03916491  0.48105223  0.99608353     0.13400
C2463       C  0.06166827  0.45009900  0.99318812    -0.24300
H2464       H  0.06427139  0.48188933  0.00797119     0.14700
H2465       H  0.97155717  0.53639802  0.99040258     0.14700
C2466       C  0.97660947  0.57030199  0.00520679    -0.24200
H2467       H  0.07750264  0.43835334  0.99810653     0.04900
H2468       H  0.09297161  0.47278644  0.98905609     0.08200
H2469       H  0.03249164  0.41544355  0.99021753     0.08200
H2470       H  0.00694958  0.60470765  0.00806984     0.08100
H2471       H  0.94561648  0.54909155  0.00948045     0.08100
H2472       H  0.96108970  0.58246879  0.00029870     0.04900
C2473       C  0.75170024  0.54735091  0.95710854    -0.20900
C2474       C  0.71029692  0.50362821  0.96024575    -0.07500
C2475       C  0.71813496  0.46500387  0.96324906     0.13400
C2476       C  0.76614629  0.46999574  0.96261268    -0.20900
C2477       C  0.80635251  0.51192004  0.95887608    -0.07500
C2478       C  0.79932171  0.55195254  0.95634929     0.13400
C2479       C  0.84175438  0.59995662  0.95294091    -0.24300
H2480       H  0.74635741  0.57774873  0.95498172     0.14700
H2481       H  0.77177777  0.43991460  0.96477510     0.14700
C2482       C  0.67579536  0.41739057  0.96673268    -0.24200
H2483       H  0.83040894  0.62870895  0.95191415     0.04900
H2484       H  0.85350328  0.59217190  0.94715817     0.08200
H2485       H  0.87405404  0.61628162  0.95708988     0.08200
H2486       H  0.64547614  0.39849257  0.96229160     0.08100
H2487       H  0.66092242  0.42653221  0.97207673     0.08100
H2488       H  0.68827433  0.39047631  0.96851730     0.04900
C2489       C  0.29176349  0.52909901  0.95863844    -0.20900
C2490       C  0.29937113  0.50427054  0.95229571    -0.07500
C2491       C  0.26671165  0.48902087  0.94573516     0.13400
C2492       C  0.22507019  0.49627757  0.94590675    -0.20900
C2493       C  0.21621993  0.51910050  0.95243182    -0.07500
C2494       C  0.25125756  0.53788745  0.95869995     0.13400
C2495       C  0.24792795  0.56854011  0.96540995    -0.24300
H2496       H  0.31811921  0.54244602  0.96352457     0.14700
H2497       H  0.19836000  0.48246393  0.94107477     0.14700
C2498       C  0.27464484  0.46339026  0.93872610    -0.24200
H2499       H  0.24245295  0.54809828  0.97107776     0.04900
H2500       H  0.21710860  0.57706632  0.96467764     0.08200
H2501       H  0.28346854  0.60531951  0.96572484     0.08200
H2502       H  0.27452717  0.42872103  0.94068720     0.08100
H2503       H  0.31120783  0.48925811  0.93585885     0.08100
H2504       H  0.24468157  0.45252112  0.93422513     0.04900
C2505       C  0.53704245  0.28373902  0.96140853    -0.20900
C2506       C  0.49386765  0.28207322  0.95829836    -0.07500
C2507       C  0.45239460  0.23511085  0.95612206     0.13400
C2508       C  0.45566676  0.19138105  0.95697995    -0.20900
C2509       C  0.49987452  0.19330393  0.95966843    -0.07500
C2510       C  0.54103530  0.24017745  0.96197855     0.13400
C2511       C  0.59028235  0.24525016  0.96453152    -0.24300
H2512       H  0.56871698  0.31974892  0.96309142     0.14700
H2513       H  0.42399174  0.15544140  0.95522782     0.14700
C2514       C  0.40457855  0.23050211  0.95289020    -0.24200
H2515       H  0.61925393  0.28514452  0.96566117     0.04900
H2516       H  0.60456129  0.23065155  0.95978881     0.08200
H2517       H  0.58499538  0.22373248  0.97007130     0.08200
H2518       H  0.41198117  0.24917491  0.94702953     0.08100
H2519       H  0.38971301  0.24802336  0.95703860     0.08100
H2520       H  0.37498327  0.19049864  0.95205064     0.04900
C2521       C  0.56479393  0.78887227  0.95239924    -0.20900
C2522       C  0.52254137  0.79323813  0.95058881    -0.07500
C2523       C  0.47674980  0.74918689  0.94856879     0.13400
C2524       C  0.47412334  0.70218547  0.94877610    -0.20900
C2525       C  0.51557283  0.69776266  0.95103381    -0.07500
C2526       C  0.56202367  0.74177083  0.95259682     0.13400
C2527       C  0.60906623  0.73954160  0.95429236    -0.24300
H2528       H  0.60012805  0.82252254  0.95376109     0.14700
H2529       H  0.43873082  0.66831866  0.94751277     0.14700
C2530       C  0.42950197  0.75049758  0.94664564    -0.24200
H2531       H  0.64264097  0.77781273  0.95471830     0.04900
H2532       H  0.61584912  0.71912935  0.94945454     0.08200
H2533       H  0.60543502  0.72018550  0.96000024     0.08200
H2534       H  0.43472263  0.77211447  0.94111428     0.08100
H2535       H  0.42009731  0.76801216  0.95161838     0.08100
H2536       H  0.39682949  0.71211583  0.94571868     0.04900
C2537       C  0.76547426  0.45898671  0.04883202    -0.20900
C2538       C  0.80950746  0.49614776  0.04518638    -0.07500
C2539       C  0.81171235  0.54104865  0.04247789     0.13400
C2540       C  0.76923824  0.54648977  0.04321884    -0.20900
C2541       C  0.72434393  0.50852363  0.04658568    -0.07500
C2542       C  0.72287191  0.46437766  0.04955926     0.13400
C2543       C  0.67621055  0.42158906  0.05318637    -0.24300
H2544       H  0.76401905  0.42488671  0.05096683     0.14700
H2545       H  0.77107138  0.58071962  0.04106668     0.14700
C2546       C  0.85886857  0.58415547  0.03895853    -0.24200
H2547       H  0.68123337  0.38914386  0.05474820     0.04900
H2548       H  0.64505112  0.40821203  0.04886280     0.08200
H2549       H  0.66629169  0.43426124  0.05870557     0.08200
H2550       H  0.86737609  0.57275528  0.03319921     0.08100
H2551       H  0.89088282  0.59572920  0.04308320     0.08100
H2552       H  0.85480270  0.61767522  0.03783084     0.04900
C2553       C  0.30370059  0.53884570  0.03890650    -0.20900
C2554       C  0.30571776  0.49435850  0.03977348    -0.07500
C2555       C  0.26063340  0.44833980  0.04130254     0.13400
C2556       C  0.21529270  0.44842153  0.04225518    -0.20900
C2557       C  0.21369774  0.49312610  0.04168714    -0.07500
C2558       C  0.25825229  0.53887386  0.03987188     0.13400
C2559       C  0.25853542  0.58822390  0.03933409    -0.24300
H2560       H  0.33822131  0.57412046  0.03785890     0.14700
H2561       H  0.18081974  0.41338144  0.04345021     0.14700
C2562       C  0.25980006  0.39879981  0.04188682    -0.24200
H2563       H  0.29706682  0.62057555  0.03837998     0.04900
H2564       H  0.24369564  0.59501684  0.04491063     0.08200
H2565       H  0.23502369  0.58742881  0.03430412     0.08200
H2566       H  0.27923918  0.39781942  0.04733239     0.08100
H2567       H  0.27827372  0.39354368  0.03661164     0.08100
H2568       H  0.22079755  0.36636990  0.04219887     0.04900
C2569       C  0.54564338  0.30074663  0.05056661    -0.20900
C2570       C  0.50880325  0.30760993  0.04683636    -0.07500
C2571       C  0.46365993  0.26466538  0.04433496     0.13400
C2572       C  0.45834088  0.21673744  0.04516093    -0.20900
C2573       C  0.49698709  0.21016608  0.04829579    -0.07500
C2574       C  0.54101341  0.25292986  0.05120778     0.13400
C2575       C  0.58449971  0.24952427  0.05466036    -0.24300
H2576       H  0.57908276  0.33320697  0.05278775     0.14700
H2577       H  0.42401052  0.18411168  0.04313522     0.14700
C2578       C  0.42032213  0.26849075  0.04091356    -0.24200
H2579       H  0.61625657  0.28716061  0.05630634     0.04900
H2580       H  0.59893831  0.23299100  0.05025195     0.08200
H2581       H  0.57235467  0.22616482  0.06011128     0.08200
H2582       H  0.43083220  0.28723896  0.03505081     0.08100
H2583       H  0.40960532  0.28999391  0.04498939     0.08100
H2584       H  0.38659349  0.23077826  0.04001723     0.04900
C2585       C  0.46817708  0.71341596  0.03976859    -0.20900
C2586       C  0.51535899  0.71719039  0.04069059    -0.07500
C2587       C  0.55924588  0.76480947  0.04014859     0.13400
C2588       C  0.55481538  0.80774873  0.03890614    -0.20900
C2589       C  0.50755422  0.80445470  0.03831286    -0.07500
C2590       C  0.46348544  0.75641968  0.03876984     0.13400
C2591       C  0.41097892  0.74880155  0.03874729    -0.24300
H2592       H  0.43449276  0.67662520  0.04013964     0.14700
H2593       H  0.58852966  0.84455222  0.03868857     0.14700
C2594       C  0.61067908  0.77037490  0.04082405    -0.24200
H2595       H  0.38959378  0.72434430  0.03369587     0.04900
H2596       H  0.40985400  0.78421367  0.03829088     0.08200
H2597       H  0.39147728  0.72989218  0.04432419     0.08200
H2598       H  0.61543956  0.74721972  0.03622432     0.08100
H2599       H  0.61524507  0.75777683  0.04676028     0.08100
H2600       H  0.64097590  0.81015778  0.04002308     0.04900
C2601       C  0.50496262  0.53702784  0.00427731    -0.20900
C2602       C  0.48074363  0.48866816  0.00770780    -0.07500
C2603       C  0.46956540  0.44677088  0.00281365     0.13400
C2604       C  0.48431529  0.45468424  0.99479667    -0.20900
C2605       C  0.50964615  0.50326334  0.99140217    -0.07500
C2606       C  0.51936896  0.54499678  0.99626631     0.13400
C2607       C  0.54603964  0.59848124  0.99321799    -0.24300
H2608       H  0.51433154  0.56944576  0.00796800     0.14700
H2609       H  0.47529903  0.42228424  0.99111942     0.14700
C2610       C  0.44091524  0.39340577  0.00588844    -0.24200
H2611       H  0.55390459  0.62623683  0.99801192     0.04900
H2612       H  0.52212122  0.60346705  0.98883296     0.08200
H2613       H  0.58256195  0.60753165  0.99050325     0.08200
H2614       H  0.40523014  0.38641924  0.00868027     0.08100
H2615       H  0.46383586  0.38667277  0.01024486     0.08100
H2616       H  0.43128393  0.36541319  0.00107180     0.04900
C2617       C  0.91354272  0.34591490  0.08939879    -0.20900
C2618       C  0.92655507  0.30807426  0.09012261    -0.07500
C2619       C  0.95555753  0.30309830  0.08403009     0.13400
C2620       C  0.96968902  0.33521644  0.07739352    -0.20900
C2621       C  0.95533272  0.37197986  0.07657641    -0.07500
C2622       C  0.92728494  0.37766280  0.08274097     0.13400
C2623       C  0.91251491  0.41772392  0.08246671    -0.24300
H2624       H  0.89225260  0.35072646  0.09409909     0.14700
H2625       H  0.99102522  0.33060917  0.07267972     0.14700
C2626       C  0.97018106  0.26290418  0.08428074    -0.24200
H2627       H  0.89414917  0.41918543  0.08804819     0.04900
H2628       H  0.88529143  0.40962049  0.07761587     0.08200
H2629       H  0.94644238  0.45528304  0.08155802     0.08200
H2630       H  0.93604100  0.22520574  0.08493533     0.08100
H2631       H  0.99612407  0.26988477  0.08928985     0.08100
H2632       H  0.98987119  0.26249852  0.07878834     0.04900
C2633       C  0.86715276  0.16164115  0.16113846    -0.20900
C2634       C  0.81961820  0.13319405  0.15764542    -0.07500
C2635       C  0.77625448  0.11667094  0.16244888     0.13400
C2636       C  0.78183075  0.12947174  0.17054070    -0.20900
C2637       C  0.82954401  0.15869383  0.17399137    -0.07500
C2638       C  0.87282036  0.17504241  0.16915995     0.13400
C2639       C  0.92534851  0.20870253  0.17225161    -0.24300
H2640       H  0.90046207  0.17558065  0.15746903     0.14700
H2641       H  0.74860512  0.11604406  0.17421987     0.14700
C2642       C  0.72405868  0.08454777  0.15916514    -0.24200
H2643       H  0.95389669  0.22182704  0.16745011     0.04900
H2644       H  0.93547261  0.18798209  0.17656142     0.08200
H2645       H  0.92785692  0.24260707  0.17507705     0.08200
H2646       H  0.72107340  0.05067305  0.15625160     0.08100
H2647       H  0.71538449  0.10634991  0.15484563     0.08100
H2648       H  0.69500302  0.07156237  0.16388673     0.04900
C2649       C  0.05233410  0.13471423  0.12871289    -0.20900
C2650       C  0.05436321  0.17681044  0.12495798    -0.07500
C2651       C  0.10148079  0.21675108  0.12246235     0.13400
C2652       C  0.14444276  0.21230867  0.12337881    -0.20900
C2653       C  0.14196588  0.16867987  0.12659267    -0.07500
C2654       C  0.09534401  0.12987652  0.12949509     0.13400
C2655       C  0.08993383  0.08217067  0.13299041    -0.24300
H2656       H  0.01638720  0.10432561  0.13076063     0.14700
H2657       H  0.18026733  0.24268457  0.12128421     0.14700
C2658       C  0.10715804  0.26437369  0.11887114    -0.24200
H2659       H  0.05045242  0.05515343  0.13470491     0.04900
H2660       H  0.11347213  0.09109751  0.13837542     0.08200
H2661       H  0.10183091  0.06344029  0.12856978     0.08200
H2662       H  0.09085524  0.28115324  0.12289058     0.08100
H2663       H  0.08804932  0.25588036  0.11305966     0.08100
H2664       H  0.14723486  0.29302196  0.11784208     0.04900
C2665       C  0.55442219  0.11927998  0.12205869    -0.20900
C2666       C  0.54651749  0.15557840  0.11830526    -0.07500
C2667       C  0.58785658  0.19682111  0.11444485     0.13400
C2668       C  0.63572342  0.20164450  0.11483064    -0.20900
C2669       C  0.64401897  0.16720925  0.11906894    -0.07500
C2670       C  0.60221560  0.12431125  0.12250019     0.13400
C2671       C  0.60679712  0.08278674  0.12653799    -0.24300
H2672       H  0.52296199  0.08679593  0.12480252     0.14700
H2673       H  0.66721287  0.23348290  0.11199030     0.14700
C2674       C  0.58301743  0.23737571  0.11019449    -0.24200
H2675       H  0.56946825  0.05003597  0.12804903     0.04900
H2676       H  0.62768586  0.09670746  0.13216917     0.08200
H2677       H  0.62617366  0.06896262  0.12257419     0.08200
H2678       H  0.56813306  0.25457339  0.11436907     0.08100
H2679       H  0.55753156  0.22115747  0.10504828     0.08100
H2680       H  0.61972735  0.26787105  0.10793213     0.04900
C2681       C  0.45522482  0.07290635  0.08198308    -0.20900
C2682       C  0.41984280  0.04571440  0.07608409    -0.07500
C2683       C  0.36933945  0.03405226  0.07722334     0.13400
C2684       C  0.35597694  0.05021212  0.08415645    -0.20900
C2685       C  0.39165563  0.07825322  0.08999046    -0.07500
C2686       C  0.44197445  0.08897271  0.08890959     0.13400
C2687       C  0.48197486  0.11601836  0.09510133    -0.24300
H2688       H  0.49377689  0.08162073  0.08116698     0.14700
H2689       H  0.31747956  0.04169014  0.08495530     0.14700
C2690       C  0.32961664  0.00636565  0.07104267    -0.24200
H2691       H  0.51772304  0.11727640  0.09353372     0.04900
H2692       H  0.46910465  0.09626907  0.10087380     0.08200
H2693       H  0.49053160  0.15560112  0.09568238     0.08200
H2694       H  0.32307539  0.96753936  0.07033807     0.08100
H2695       H  0.34172340  0.02677196  0.06531184     0.08100
H2696       H  0.29313728  0.00320556  0.07270509     0.04900
C2697       C  0.34922261  0.20725340  0.17097921    -0.20900
C2698       C  0.33675457  0.16003471  0.17420320    -0.07500
C2699       C  0.31493510  0.11714919  0.16922588     0.13400
C2700       C  0.30624229  0.12266122  0.16122898    -0.20900
C2701       C  0.31931917  0.16992627  0.15797289    -0.07500
C2702       C  0.34092895  0.21280053  0.16294491     0.13400
C2703       C  0.35409896  0.26422032  0.15988580    -0.24300
H2704       H  0.36492907  0.23999931  0.17480409     0.14700
H2705       H  0.29090889  0.08992028  0.15740154     0.14700
C2706       C  0.30286467  0.06579125  0.17217934    -0.24200
H2707       H  0.36684978  0.29253634  0.16471205     0.04900
H2708       H  0.32057699  0.26247055  0.15709095     0.08200
H2709       H  0.38508377  0.27767855  0.15550425     0.08200
H2710       H  0.27214651  0.05159696  0.17661837     0.08100
H2711       H  0.33690702  0.06802624  0.17485681     0.08100
H2712       H  0.29016452  0.03769427  0.16732044     0.04900
C2713       C  0.55817847  0.17400172  0.21473548    -0.20900
C2714       C  0.53228984  0.16442130  0.20753492    -0.07500
C2715       C  0.55099331  0.15149869  0.20083688     0.13400
C2716       C  0.59427290  0.14709168  0.20161118    -0.20900
C2717       C  0.61919800  0.15505983  0.20891704    -0.07500
C2718       C  0.60117688  0.16965440  0.21553486     0.13400
C2719       C  0.62743690  0.18215533  0.22343545    -0.24300
H2720       H  0.54434592  0.18484164  0.21984137     0.14700
H2721       H  0.60830121  0.13661528  0.19649221     0.14700
C2722       C  0.52471662  0.14063022  0.19296847    -0.24200
H2723       H  0.60994311  0.19636951  0.22771160     0.04900
H2724       H  0.66739505  0.21194157  0.22269055     0.08200
H2725       H  0.62509596  0.14788438  0.22607956     0.08200
H2726       H  0.52501572  0.17487825  0.19074514     0.08100
H2727       H  0.48528407  0.10944448  0.19361092     0.08100
H2728       H  0.54349898  0.12926617  0.18846192     0.04900
C2729       C  0.09015701  0.14000644  0.21589503    -0.20900
C2730       C  0.12975809  0.18457211  0.21265145    -0.07500
C2731       C  0.11955012  0.22191980  0.20973845     0.13400
C2732       C  0.06991035  0.21254861  0.20986344    -0.20900
C2733       C  0.03020871  0.16715829  0.21284555    -0.07500
C2734       C  0.04068588  0.13070949  0.21600924     0.13400
C2735       C  0.99976844  0.08060753  0.21907131    -0.24300
H2736       H  0.09752985  0.11113113  0.21811833     0.14700
H2737       H  0.06189464  0.24076132  0.20753004     0.14700
C2738       C  0.16037570  0.27199033  0.20661750    -0.24200
H2739       H  0.01456581  0.05559470  0.22086177     0.04900
H2740       H  0.97156472  0.06122800  0.21434488     0.08200
H2741       H  0.98157174  0.08617029  0.22434582     0.08200
H2742       H  0.17655892  0.26652156  0.20109012     0.08100
H2743       H  0.19029235  0.29080007  0.21113413     0.08100
H2744       H  0.14576746  0.29771704  0.20519284     0.04900
C2745       C  0.82777402  0.89172687  0.13085973    -0.20900
C2746       C  0.82923170  0.87226573  0.12336260    -0.07500
C2747       C  0.83766596  0.90246862  0.11656749     0.13400
C2748       C  0.84372105  0.95047458  0.11746117    -0.20900
C2749       C  0.84063273  0.96927540  0.12489312    -0.07500
C2750       C  0.83309552  0.93981501  0.13170645     0.13400
C2751       C  0.82888080  0.95797333  0.13979212    -0.24300
H2752       H  0.82166221  0.86886970  0.13608885     0.14700
H2753       H  0.85027581  0.97352708  0.11223585     0.14700
C2754       C  0.84137444  0.88538915  0.10834313    -0.24200
H2755       H  0.82120701  0.92924396  0.14442173     0.04900
H2756       H  0.79763902  0.96635421  0.13987397     0.08200
H2757       H  0.86462630  0.99253320  0.14132529     0.08200
H2758       H  0.80469434  0.85274606  0.10659137     0.08100
H2759       H  0.87117939  0.87497409  0.10814300     0.08100
H2760       H  0.85100584  0.91543351  0.10386347     0.04900
C2761       C  0.79689772  0.42509109  0.11655189    -0.20900
C2762       C  0.83351436  0.46855072  0.12036819    -0.07500
C2763       C  0.87785388  0.47022477  0.12315069     0.13400
C2764       C  0.88301194  0.42762122  0.12230747    -0.20900
C2765       C  0.84495548  0.38302386  0.11890446    -0.07500
C2766       C  0.80132595  0.38195870  0.11591079     0.13400
C2767       C  0.75793158  0.33522793  0.11239516    -0.24300
H2768       H  0.76378526  0.42429520  0.11423114     0.14700
H2769       H  0.91686449  0.42893885  0.12446619     0.14700
C2770       C  0.92056748  0.51670780  0.12686744    -0.24200
H2771       H  0.72595223  0.34089203  0.11084930     0.04900
H2772       H  0.74395342  0.30396254  0.11675531     0.08200
H2773       H  0.76997107  0.32462175  0.10687931     0.08200
H2774       H  0.90849827  0.52456344  0.13262194     0.08100
H2775       H  0.93312580  0.54943666  0.12282340     0.08100
H2776       H  0.95354414  0.51201571  0.12806985     0.04900
C2777       C  0.07482405  0.85450537  0.12315054    -0.20900
C2778       C  0.03389884  0.85762068  0.12625671    -0.07500
C2779       C  0.04170196  0.90457885  0.12897187     0.13400
C2780       C  0.08959768  0.94738987  0.12812766    -0.20900
C2781       C  0.12958463  0.94469052  0.12451849    -0.07500
C2782       C  0.12232598  0.89728868  0.12219743     0.13400
C2783       C  0.16436597  0.89117509  0.11880742    -0.24300
H2784       H  0.06916566  0.81829180  0.12120870     0.14700
H2785       H  0.09547489  0.98355274  0.13009802     0.14700
C2786       C  0.99957953  0.91037602  0.13242783    -0.24200
H2787       H  0.15275075  0.85088327  0.11789478     0.04900
H2788       H  0.19695531  0.90761282  0.12289969     0.08200
H2789       H  0.17575879  0.91008953  0.11296990     0.08200
H2790       H  0.98527061  0.88746208  0.13790279     0.08100
H2791       H  0.96856181  0.89790775  0.12807809     0.08100
H2792       H  0.01226353  0.95017337  0.13400294     0.04900
C2793       C  0.57427090  0.36280974  0.11630578    -0.20900
C2794       C  0.53049562  0.35539934  0.12005675    -0.07500
C2795       C  0.52859877  0.39771331  0.12303126     0.13400
C2796       C  0.57130459  0.44571825  0.12244044    -0.20900
C2797       C  0.61622362  0.45288095  0.11905938    -0.07500
C2798       C  0.61735942  0.41056108  0.11586345     0.13400
C2799       C  0.66412853  0.41425763  0.11232585    -0.24300
H2800       H  0.57528849  0.33075907  0.11387727     0.14700
H2801       H  0.56971479  0.47787687  0.12476246     0.14700
C2802       C  0.48162596  0.39317595  0.12668968    -0.24200
H2803       H  0.65866026  0.37678643  0.11063504     0.04900
H2804       H  0.69469194  0.43080535  0.11676347     0.08200
H2805       H  0.67518726  0.43784069  0.10689907     0.08200
H2806       H  0.47323833  0.37243548  0.13237692     0.08100
H2807       H  0.44944865  0.37330912  0.12257214     0.08100
H2808       H  0.48588668  0.43066146  0.12799518     0.04900
C2809       C  0.70454749  0.64627903  0.08474632    -0.20900
C2810       C  0.69915615  0.60801507  0.08995618    -0.07500
C2811       C  0.66316357  0.55718314  0.08813489     0.13400
C2812       C  0.63431572  0.54651501  0.08122530    -0.20900
C2813       C  0.63996726  0.58473216  0.07600865    -0.07500
C2814       C  0.67576599  0.63540338  0.07780683     0.13400
C2815       C  0.68530423  0.67816979  0.07233651    -0.24300
H2816       H  0.73202303  0.68514927  0.08606054     0.14700
H2817       H  0.60694263  0.50766338  0.07987039     0.14700
C2818       C  0.65364406  0.51363592  0.09345600    -0.24200
H2819       H  0.71672226  0.71477028  0.07443793     0.04900
H2820       H  0.65127765  0.68195508  0.07200797     0.08200
H2821       H  0.69531207  0.67104836  0.06634813     0.08200
H2822       H  0.64360716  0.51989792  0.09949652     0.08100
H2823       H  0.68750112  0.50947945  0.09368033     0.08100
H2824       H  0.62217040  0.47727177  0.09128797     0.04900
C2825       C  0.06910579  0.90207177  0.21955430    -0.20900
C2826       C  0.05027848  0.87693861  0.21233042    -0.07500
C2827       C  0.07022555  0.90364385  0.20517479     0.13400
C2828       C  0.11048348  0.95307678  0.20544729    -0.20900
C2829       C  0.13142817  0.97734128  0.21264160    -0.07500
C2830       C  0.10946443  0.95194065  0.21981521     0.13400
C2831       C  0.12900709  0.97620667  0.22774212    -0.24300
H2832       H  0.05269172  0.88229176  0.22503643     0.14700
H2833       H  0.12607413  0.97294579  0.19993501     0.14700
C2834       C  0.04869332  0.88129134  0.19719852    -0.24200
H2835       H  0.10829303  0.95008923  0.23269461     0.04900
H2836       H  0.12432273  0.00969464  0.22837097     0.08200
H2837       H  0.16932668  0.98760211  0.22830354     0.08200
H2838       H  0.00767714  0.86753202  0.19712054     0.08100
H2839       H  0.05583300  0.84996842  0.19589038     0.08100
H2840       H  0.06624603  0.90936102  0.19235620     0.04900
C2841       C  0.63495436  0.42197806  0.20502111    -0.20900
C2842       C  0.63668318  0.46823388  0.20612209    -0.07500
C2843       C  0.59141698  0.46867691  0.20755727     0.13400
C2844       C  0.54614814  0.42293442  0.20824432    -0.20900
C2845       C  0.54465064  0.37678697  0.20741326    -0.07500
C2846       C  0.58943094  0.37609904  0.20567830     0.13400
C2847       C  0.58989954  0.32725688  0.20493466    -0.24300
H2848       H  0.66968184  0.42166492  0.20401821     0.14700
H2849       H  0.51153060  0.42312468  0.20943326     0.14700
C2850       C  0.59020041  0.51713976  0.20824195    -0.24200
H2851       H  0.62854273  0.33386991  0.20401276     0.04900
H2852       H  0.56694225  0.30545802  0.19980305     0.08200
H2853       H  0.57456075  0.30452019  0.21040939     0.08200
H2854       H  0.60861300  0.54131337  0.20299734     0.08100
H2855       H  0.60950798  0.53738123  0.21370489     0.08100
H2856       H  0.55109313  0.51015045  0.20856603     0.04900
C2857       C  0.79310714  0.85161868  0.21299300    -0.20900
C2858       C  0.84131726  0.85894502  0.21438684    -0.07500
C2859       C  0.88086404  0.90751520  0.21634445     0.13400
C2860       C  0.87126334  0.94776868  0.21662849    -0.20900
C2861       C  0.82360878  0.94106515  0.21479531    -0.07500
C2862       C  0.78358907  0.89182306  0.21317203     0.13400
C2863       C  0.73057158  0.88077762  0.21173209    -0.24300
H2864       H  0.76270300  0.81404688  0.21161903     0.14700
H2865       H  0.90176892  0.98512294  0.21798069     0.14700
C2866       C  0.93366967  0.91769307  0.21769488    -0.24200
H2867       H  0.70367553  0.83961927  0.21134700     0.04900
H2868       H  0.72844513  0.89766626  0.20604880     0.08200
H2869       H  0.71819048  0.89594979  0.21666837     0.08200
H2870       H  0.94699231  0.90613489  0.21241395     0.08100
H2871       H  0.93463635  0.89644176  0.22294321     0.08100
H2872       H  0.96033077  0.95831762  0.21877036     0.04900
C2873       C  0.87991750  0.40018600  0.20624653    -0.20900
C2874       C  0.83241808  0.35746981  0.20497455    -0.07500
C2875       C  0.78992430  0.36349129  0.20422947     0.13400
C2876       C  0.79605985  0.41203966  0.20495130    -0.20900
C2877       C  0.84320862  0.45414620  0.20670839    -0.07500
C2878       C  0.88579154  0.44827525  0.20719770     0.13400
C2879       C  0.93748412  0.49253180  0.20868086    -0.24300
H2880       H  0.91250782  0.39550185  0.20681746     0.14700
H2881       H  0.76351193  0.41687962  0.20448496     0.14700
C2882       C  0.73791996  0.31876554  0.20318179    -0.24200
H2883       H  0.96678668  0.48139716  0.20852441     0.04900
H2884       H  0.93876207  0.50863836  0.21460377     0.08200
H2885       H  0.94686246  0.52183554  0.20408171     0.08200
H2886       H  0.72870439  0.29213078  0.20820335     0.08100
H2887       H  0.73598202  0.29918758  0.19756296     0.08100
H2888       H  0.70891154  0.33025703  0.20296950     0.04900
C2889       C  0.86836153  0.65196061  0.17126763    -0.20900
C2890       C  0.83453718  0.66544943  0.17452669    -0.07500
C2891       C  0.81513165  0.68907723  0.16959624     0.13400
C2892       C  0.82896267  0.69726021  0.16157093    -0.20900
C2893       C  0.86162300  0.68250276  0.15825320    -0.07500
C2894       C  0.88224161  0.66025633  0.16322457     0.13400
C2895       C  0.91988003  0.64641619  0.16015968    -0.24300
H2896       H  0.88455853  0.63530930  0.17506747     0.14700
H2897       H  0.81241044  0.71356651  0.15777296     0.14700
C2898       C  0.77813114  0.70392395  0.17262912    -0.24200
H2899       H  0.93518204  0.63345992  0.16499216     0.04900
H2900       H  0.95186696  0.67981866  0.15732828     0.08200
H2901       H  0.90199885  0.61529972  0.15581157     0.08200
H2902       H  0.79648291  0.73486758  0.17699510     0.08100
H2903       H  0.74550621  0.67087045  0.17541143     0.08100
H2904       H  0.76363597  0.71774836  0.16780140     0.04900
C2905       C  0.77207283  0.00888259  0.25603459    -0.20900
C2906       C  0.72182383  0.97021766  0.25685009    -0.07500
C2907       C  0.68740010  0.96308494  0.25073792     0.13400
C2908       C  0.70447829  0.99393662  0.24395550    -0.20900
C2909       C  0.75509173  0.03175631  0.24305245    -0.07500
C2910       C  0.78909702  0.03974559  0.24928255     0.13400
C2911       C  0.84321894  0.08118621  0.24899055    -0.24300
H2912       H  0.79842992  0.01509654  0.26074971     0.14700
H2913       H  0.67822205  0.98763261  0.23922298     0.14700
C2914       C  0.63307975  0.92199943  0.25115440    -0.24200
H2915       H  0.86273336  0.08513037  0.25469469     0.04900
H2916       H  0.84552742  0.11781183  0.24767157     0.08200
H2917       H  0.86340168  0.07226086  0.24442700     0.08200
H2918       H  0.61391622  0.92944620  0.25610167     0.08100
H2919       H  0.63063298  0.88489456  0.25202934     0.08100
H2920       H  0.61248940  0.91990120  0.24564553     0.04900
C2921       C  0.65427344  0.85811541  0.32794047    -0.20900
C2922       C  0.67128615  0.82731293  0.32455196    -0.07500
C2923       C  0.69419298  0.80723679  0.32948591     0.13400
C2924       C  0.69955691  0.81859390  0.33759016    -0.20900
C2925       C  0.68189455  0.84867418  0.34100455    -0.07500
C2926       C  0.65910763  0.86892668  0.33608864     0.13400
C2927       C  0.64102870  0.90294665  0.33932925    -0.24300
H2928       H  0.63740499  0.87423551  0.32417156     0.14700
H2929       H  0.71593967  0.80201094  0.34136438     0.14700
C2930       C  0.71085680  0.77174054  0.32637787    -0.24200
H2931       H  0.62754940  0.91817392  0.33455813     0.04900
H2932       H  0.67228017  0.93533885  0.34244472     0.08200
H2933       H  0.60922241  0.88182808  0.34347574     0.08200
H2934       H  0.74274774  0.79173236  0.32220289     0.08100
H2935       H  0.67899051  0.73938421  0.32335575     0.08100
H2936       H  0.72382586  0.75638937  0.33120320     0.04900
C2937       C  0.92823584  0.77765214  0.37443091    -0.20900
C2938       C  0.97094384  0.82349765  0.37220929    -0.07500
C2939       C  0.96513328  0.86568980  0.37066264     0.13400
C2940       C  0.91734466  0.86104644  0.37154747    -0.20900
C2941       C  0.87546613  0.81603184  0.37422346    -0.07500
C2942       C  0.88093491  0.77349226  0.37552558     0.13400
C2943       C  0.83705926  0.72344519  0.37799097    -0.24300
H2944       H  0.93230670  0.74505506  0.37559420     0.14700
H2945       H  0.91305665  0.89344196  0.37042805     0.14700
C2946       C  0.00939890  0.91634052  0.36853264    -0.24200
H2947       H  0.84745580  0.69357578  0.37830387     0.04900
H2948       H  0.80597891  0.71130983  0.37366312     0.08200
H2949       H  0.82384047  0.72673007  0.38394430     0.08200
H2950       H  0.02616983  0.91361158  0.36286620     0.08100
H2951       H  0.03813498  0.92915824  0.37327936     0.08100
H2952       H  0.99824900  0.94547479  0.36780360     0.04900
C2953       C  0.39566296  0.81588593  0.37304514    -0.20900
C2954       C  0.38247803  0.82659699  0.38042817    -0.07500
C2955       C  0.40790710  0.82447660  0.38725816     0.13400
C2956       C  0.44708707  0.81343258  0.38645438    -0.20900
C2957       C  0.46141519  0.80422791  0.37900100    -0.07500
C2958       C  0.43420823  0.80434419  0.37222294     0.13400
C2959       C  0.44444910  0.79146506  0.36407372    -0.24300
H2960       H  0.37522968  0.81622080  0.36784335     0.14700
H2961       H  0.46763647  0.81352260  0.39166258     0.14700
C2962       C  0.39536792  0.83580185  0.39534805    -0.24200
H2963       H  0.41562799  0.78761927  0.35973575     0.04900
H2964       H  0.44402416  0.75500425  0.36423892     0.08200
H2965       H  0.48120098  0.82191370  0.36186162     0.08200
H2966       H  0.35638761  0.80708550  0.39700910     0.08100
H2967       H  0.39907913  0.87378182  0.39536101     0.08100
H2968       H  0.42085514  0.83527044  0.39994947     0.04900
C2969       C  0.41024755  0.87488753  0.28938934    -0.20900
C2970       C  0.36982685  0.83248438  0.29300845    -0.07500
C2971       C  0.37894547  0.79587030  0.29651584     0.13400
C2972       C  0.42720305  0.80142172  0.29591044    -0.20900
C2973       C  0.46645066  0.84205534  0.29177623    -0.07500
C2974       C  0.45804050  0.88004484  0.28867688     0.13400
C2975       C  0.49912952  0.92655280  0.28468591    -0.24300
H2976       H  0.40406162  0.90388285  0.28686679     0.14700
H2977       H  0.43380986  0.77279689  0.29845497     0.14700
C2978       C  0.33789425  0.74993526  0.30059592    -0.24200
H2979       H  0.48680539  0.95410367  0.28325084     0.04900
H2980       H  0.50995411  0.91617450  0.27903635     0.08200
H2981       H  0.53226445  0.94557243  0.28864451     0.08200
H2982       H  0.30653666  0.72832035  0.29641607     0.08100
H2983       H  0.32408718  0.76160628  0.30579501     0.08100
H2984       H  0.35136644  0.72447039  0.30274122     0.04900
C2985       C  0.91156278  0.87017516  0.28232681    -0.20900
C2986       C  0.86490298  0.82900296  0.28440509    -0.07500
C2987       C  0.86113988  0.78185875  0.28599086     0.13400
C2988       C  0.90479085  0.77807694  0.28591464    -0.20900
C2989       C  0.95205658  0.82017561  0.28431549    -0.07500
C2990       C  0.95541365  0.86681750  0.28238939     0.13400
C2991       C  0.00513332  0.91401089  0.28086055    -0.24300
H2992       H  0.91405673  0.90577494  0.28098361     0.14700
H2993       H  0.90212080  0.74216118  0.28723177     0.14700
C2994       C  0.81119955  0.73520251  0.28761397    -0.24200
H2995       H  0.00070233  0.94754721  0.28003222     0.04900
H2996       H  0.02265003  0.90968741  0.27539422     0.08200
H2997       H  0.03067279  0.92166703  0.28596340     0.08200
H2998       H  0.78474000  0.72901803  0.28270870     0.08100
H2999       H  0.79515274  0.73911462  0.29326776     0.08100
H3000       H  0.81495579  0.70106844  0.28811139     0.04900
C3001       C  0.13791172  0.84187323  0.32767135    -0.20900
C3002       C  0.17355535  0.83047530  0.32449600    -0.07500
C3003       C  0.19892280  0.81471948  0.32972724     0.13400
C3004       C  0.18721217  0.80952632  0.33783243    -0.20900
C3005       C  0.15152788  0.82063942  0.34104302    -0.07500
C3006       C  0.12672649  0.83740645  0.33584658     0.13400
C3007       C  0.08766113  0.84950137  0.33879588    -0.24300
H3008       H  0.11822208  0.85390431  0.32370880     0.14700
H3009       H  0.20754210  0.79803658  0.34175211     0.14700
C3010       C  0.24022389  0.80552999  0.32692093    -0.24200
H3011       H  0.06979000  0.85872719  0.33386282     0.04900
H3012       H  0.10528132  0.88273965  0.34274407     0.08200
H3013       H  0.05768391  0.81661098  0.34203903     0.08200
H3014       H  0.26887348  0.83883650  0.32358181     0.08100
H3015       H  0.22429729  0.77161203  0.32314017     0.08100
H3016       H  0.25952312  0.79878889  0.33192325     0.04900
C3017       C  0.04564626  0.77525325  0.25031260    -0.20900
C3018       C  0.03392031  0.73884853  0.25623356    -0.07500
C3019       C  0.99487271  0.68866570  0.25478499     0.13400
C3020       C  0.96851801  0.67678351  0.24755288    -0.20900
C3021       C  0.97966607  0.71357630  0.24170473    -0.07500
C3022       C  0.01949720  0.76345013  0.24309806     0.13400
C3023       C  0.03597467  0.80446918  0.23694518    -0.24300
H3024       H  0.07587241  0.81347721  0.25132763     0.14700
H3025       H  0.93810516  0.63866095  0.24653612     0.14700
C3026       C  0.97923884  0.64775912  0.26092243    -0.24200
H3027       H  0.07032919  0.83961715  0.23878296     0.04900
H3028       H  0.00612288  0.81421415  0.23599471     0.08200
H3029       H  0.04458034  0.79182623  0.23129784     0.08200
H3030       H  0.96909827  0.65952812  0.26651678     0.08100
H3031       H  0.01034418  0.63999782  0.26200574     0.08100
H3032       H  0.94607906  0.61187446  0.25898858     0.04900
C3033       C  0.85391934  0.06434298  0.37532775    -0.20900
C3034       C  0.85654539  0.02368420  0.37194416    -0.07500
C3035       C  0.90324621  0.03229848  0.36895816     0.13400
C3036       C  0.94614804  0.08016934  0.36989190    -0.20900
C3037       C  0.94395010  0.11962669  0.37381997    -0.07500
C3038       C  0.89680053  0.11176717  0.37639348     0.13400
C3039       C  0.89100942  0.15296806  0.38023782    -0.24300
H3040       H  0.81804704  0.05845233  0.37745344     0.14700
H3041       H  0.98213600  0.08626524  0.36778496     0.14700
C3042       C  0.90887258  0.99093166  0.36515710    -0.24200
H3043       H  0.85092935  0.14099426  0.38137024     0.04900
H3044       H  0.90687996  0.18664957  0.37633230     0.08200
H3045       H  0.91051662  0.16301605  0.38602461     0.08200
H3046       H  0.88545351  0.97743698  0.35974240     0.08100
H3047       H  0.89689923  0.95932145  0.36939394     0.08100
H3048       H  0.94841519  0.00395151  0.36342137     0.04900
C3049       C  0.39518536  0.51446926  0.37697798    -0.20900
C3050       C  0.35550183  0.52130950  0.37954253    -0.07500
C3051       C  0.36641323  0.56849218  0.38266672     0.13400
C3052       C  0.41667031  0.60786153  0.38292685    -0.20900
C3053       C  0.45639772  0.60155119  0.38009826    -0.07500
C3054       C  0.44527890  0.55365601  0.37719161     0.13400
C3055       C  0.48555742  0.54269371  0.37441176    -0.24300
H3056       H  0.38683565  0.47792834  0.37473238     0.14700
H3057       H  0.42474483  0.64436538  0.38513996     0.14700
C3058       C  0.32536090  0.57838187  0.38540192    -0.24200
H3059       H  0.46993012  0.50221987  0.37294547     0.04900
H3060       H  0.51389628  0.55229826  0.37914426     0.08200
H3061       H  0.50381845  0.56446013  0.36896557     0.08200
H3062       H  0.30549203  0.55424938  0.39057915     0.08100
H3063       H  0.29816971  0.57036361  0.38053215     0.08100
H3064       H  0.34057671  0.61823231  0.38722932     0.04900
C3065       C  0.13322019  0.09038349  0.38063165    -0.20900
C3066       C  0.15145047  0.12102380  0.37386794    -0.07500
C3067       C  0.17527426  0.10861627  0.36786502     0.13400
C3068       C  0.18089375  0.06607940  0.36883538    -0.20900
C3069       C  0.16437072  0.03656605  0.37575866    -0.07500
C3070       C  0.13935116  0.04838686  0.38166495     0.13400
C3071       C  0.11818810  0.01648404  0.38899461    -0.24300
H3072       H  0.11519040  0.10031848  0.38525129     0.14700
H3073       H  0.19949497  0.05655642  0.36425985     0.14700
C3074       C  0.19685384  0.14145867  0.36065344    -0.24200
H3075       H  0.09731240  0.02969174  0.39273943     0.04900
H3076       H  0.14912222  0.01836971  0.39262317     0.08200
H3077       H  0.09177002  0.97675285  0.38731151     0.08200
H3078       H  0.22539735  0.18026062  0.36246217     0.08100
H3079       H  0.16641547  0.14278154  0.35732717     0.08100
H3080       H  0.21530029  0.12693004  0.35662594     0.04900
C3081       C  0.15414768  0.55847750  0.38580823    -0.20900
C3082       C  0.16750337  0.54050548  0.37915820    -0.07500
C3083       C  0.19185949  0.57315686  0.37271828     0.13400
C3084       C  0.20088345  0.62273914  0.37299005    -0.20900
C3085       C  0.18640169  0.64058220  0.37955344    -0.07500
C3086       C  0.16293090  0.60804647  0.38607792     0.13400
C3087       C  0.14510119  0.62439549  0.39318429    -0.24300
H3088       H  0.13564756  0.53321341  0.39072898     0.14700
H3089       H  0.21891736  0.64767706  0.36800260     0.14700
C3090       C  0.20924298  0.55615512  0.36561916    -0.24200
H3091       H  0.12497618  0.59311996  0.39748790     0.04900
H3092       H  0.11885297  0.63743269  0.39130475     0.08200
H3093       H  0.17787031  0.65520709  0.39627446     0.08200
H3094       H  0.17643643  0.52539297  0.36252498     0.08100
H3095       H  0.23493425  0.54248003  0.36752786     0.08100
H3096       H  0.22978184  0.58730477  0.36131348     0.04900
C3097       C  0.97155247  0.09110993  0.28228589    -0.20900
C3098       C  0.97699238  0.13786933  0.28429106    -0.07500
C3099       C  0.93361213  0.14159015  0.28582279     0.13400
C3100       C  0.88612228  0.09782591  0.28568304    -0.20900
C3101       C  0.88086042  0.05046337  0.28408812    -0.07500
C3102       C  0.92425646  0.04726307  0.28226708     0.13400
C3103       C  0.92179147  0.99758541  0.28084099    -0.24300
H3104       H  0.00479422  0.08844529  0.28112062     0.14700
H3105       H  0.85291835  0.10046563  0.28697007     0.14700
C3106       C  0.93693834  0.19155224  0.28749601    -0.24200
H3107       H  0.95978599  0.00213974  0.28009815     0.04900
H3108       H  0.90036447  0.97988619  0.27536333     0.08200
H3109       H  0.90352532  0.97229839  0.28598368     0.08200
H3110       H  0.95809024  0.21868170  0.28267870     0.08100
H3111       H  0.95593996  0.20689197  0.29322800     0.08100
H3112       H  0.89912139  0.18784318  0.28787237     0.04900
C3113       C  0.38731499  0.57627198  0.29576818    -0.20900
C3114       C  0.38903434  0.53527746  0.29234478    -0.07500
C3115       C  0.43622377  0.54111228  0.29025744     0.13400
C3116       C  0.47977454  0.58814518  0.29125721    -0.20900
C3117       C  0.47776426  0.63034179  0.29407686    -0.07500
C3118       C  0.43085297  0.62388687  0.29655789     0.13400
C3119       C  0.42575351  0.66727598  0.29962386    -0.24300
H3120       H  0.35130730  0.57157956  0.29753341     0.14700
H3121       H  0.51570829  0.59255337  0.28948374     0.14700
C3122       C  0.44124568  0.49808981  0.28698599    -0.24200
H3123       H  0.38601696  0.65581721  0.30096226     0.04900
H3124       H  0.43976624  0.69774104  0.29512020     0.08200
H3125       H  0.44757545  0.68178152  0.30516584     0.08200
H3126       H  0.42325117  0.48725932  0.28109052     0.08100
H3127       H  0.42335886  0.46534891  0.29107829     0.08100
H3128       H  0.48123463  0.50853189  0.28622057     0.04900
C3129       C  0.22761666  0.11654535  0.28623577    -0.20900
C3130       C  0.18781911  0.12256324  0.28346562    -0.07500
C3131       C  0.14449129  0.07977845  0.28034587     0.13400
C3132       C  0.14106703  0.03233037  0.28060539    -0.20900
C3133       C  0.17922045  0.02592113  0.28393312    -0.07500
C3134       C  0.22408139  0.06903035  0.28648042     0.13400
C3135       C  0.26884989  0.06566898  0.28933261    -0.24300
H3136       H  0.26150353  0.14918185  0.28838075     0.14700
H3137       H  0.10723111  0.99952231  0.27850378     0.14700
C3138       C  0.10031893  0.08263772  0.27709086    -0.24200
H3139       H  0.30209052  0.10359059  0.29032350     0.04900
H3140       H  0.27940441  0.04611400  0.28484431     0.08200
H3141       H  0.26018510  0.04510839  0.29503859     0.08200
H3142       H  0.11194647  0.10720778  0.27177206     0.08100
H3143       H  0.08554982  0.09765883  0.28168951     0.08100
H3144       H  0.06909104  0.04506147  0.27528890     0.04900
C3145       C  0.12015230  0.51956569  0.29030589    -0.20900
C3146       C  0.16404076  0.52276181  0.29347526    -0.07500
C3147       C  0.20277315  0.56980880  0.29622094     0.13400
C3148       C  0.19753226  0.61252705  0.29534482    -0.20900
C3149       C  0.15525705  0.60971922  0.29163057    -0.07500
C3150       C  0.11543734  0.56233301  0.28926540     0.13400
C3151       C  0.06768727  0.55623246  0.28573018    -0.24300
H3152       H  0.08986180  0.48335156  0.28833779     0.14700
H3153       H  0.22761961  0.64881271  0.29730265     0.14700
C3154       C  0.25064843  0.57596114  0.29967898    -0.24200
H3155       H  0.03942789  0.51597120  0.28470650     0.04900
H3156       H  0.07578266  0.57568096  0.27992764     0.08200
H3157       H  0.05074935  0.57208113  0.28980519     0.08200
H3158       H  0.26928458  0.56357166  0.29531800     0.08100
H3159       H  0.24203651  0.55315525  0.30515928     0.08100
H3160       H  0.27753080  0.61583049  0.30123647     0.04900
C3161       C  0.21484043  0.34387749  0.32803111    -0.20900
C3162       C  0.16714432  0.32640636  0.32463572    -0.07500
C3163       C  0.12398981  0.30016054  0.32949987     0.13400
C3164       C  0.12976360  0.29239683  0.33753303    -0.20900
C3165       C  0.17738682  0.31019227  0.34096124    -0.07500
C3166       C  0.22057415  0.33609306  0.33609178     0.13400
C3167       C  0.27273234  0.35438034  0.33925830    -0.24300
H3168       H  0.24796841  0.36310102  0.32431261     0.14700
H3169       H  0.09657025  0.27376470  0.34124472     0.14700
C3170       C  0.07165405  0.28190117  0.32639501    -0.24200
H3171       H  0.30148436  0.36988615  0.33448594     0.04900
H3172       H  0.27455964  0.32257421  0.34207372     0.08200
H3173       H  0.28285270  0.38491382  0.34363169     0.08200
H3174       H  0.06144223  0.25140537  0.32200814     0.08100
H3175       H  0.06961612  0.31371243  0.32362565     0.08100
H3176       H  0.04301269  0.26623340  0.33118231     0.04900
C3177       C  0.21927104  0.26069252  0.25006338    -0.20900
C3178       C  0.25697996  0.28977821  0.25556755    -0.07500
C3179       C  0.30752763  0.30464114  0.25366420     0.13400
C3180       C  0.31860481  0.28942987  0.24642438    -0.20900
C3181       C  0.28067291  0.25892928  0.24102617    -0.07500
C3182       C  0.23014964  0.24507160  0.24286786     0.13400
C3183       C  0.18715261  0.21458380  0.23728113    -0.24300
H3184       H  0.18060292  0.24961450  0.25144086     0.14700
H3185       H  0.35721759  0.30014231  0.24509126     0.14700
C3186       C  0.34988568  0.33441066  0.25936265    -0.24200
H3187       H  0.15134022  0.21109566  0.23943126     0.04900
H3188       H  0.18082095  0.17575921  0.23672285     0.08200
H3189       H  0.19539938  0.23307616  0.23138730     0.08200
H3190       H  0.34196014  0.31409724  0.26509671     0.08100
H3191       H  0.35437317  0.37230811  0.26028694     0.08100
H3192       H  0.38631041  0.33996795  0.25710752     0.04900
C3193       C  0.04543552  0.33935311  0.41425013    -0.20900
C3194       C  0.07960354  0.37786919  0.40920334    -0.07500
C3195       C  0.09686602  0.42883713  0.41136837     0.13400
C3196       C  0.08064358  0.43936605  0.41851564    -0.20900
C3197       C  0.04741158  0.40092043  0.42363522    -0.07500
C3198       C  0.02918870  0.35003224  0.42140771     0.13400
C3199       C  0.99400930  0.30656217  0.42661818    -0.24300
H3200       H  0.03181858  0.30037449  0.41264946     0.14700
H3201       H  0.09409878  0.47832375  0.42011885     0.14700
C3202       C  0.13131921  0.47280853  0.40615958    -0.24200
H3203       H  0.98609893  0.26972133  0.42414303     0.04900
H3204       H  0.95748750  0.30549081  0.42717657     0.08200
H3205       H  0.01104450  0.31054879  0.43254910     0.08200
H3206       H  0.11454712  0.46768948  0.40018918     0.08100
H3207       H  0.16882549  0.47590522  0.40574818     0.08100
H3208       H  0.13729850  0.50924892  0.40852106     0.04900
C3209       C  0.01324074  0.53118317  0.50503727    -0.20900
C3210       C  0.99772330  0.48285777  0.50813348    -0.07500
C3211       C  0.97375358  0.44073019  0.50303758     0.13400
C3212       C  0.96604016  0.44808510  0.49506677    -0.20900
C3213       C  0.98191928  0.49640527  0.49194050    -0.07500
C3214       C  0.00572894  0.53852253  0.49703898     0.13400
C3215       C  0.02198673  0.59108314  0.49417040    -0.24300
H3216       H  0.03076403  0.56351974  0.50894044     0.14700
H3217       H  0.94906305  0.41575666  0.49115823     0.14700
C3218       C  0.95817525  0.38811225  0.50583031    -0.24200
H3219       H  0.03649633  0.61886122  0.49907792     0.04900
H3220       H  0.98949730  0.59202519  0.49148835     0.08200
H3221       H  0.05256508  0.60325250  0.48974453     0.08200
H3222       H  0.92749190  0.37530045  0.51025587     0.08100
H3223       H  0.99091761  0.38746603  0.50847423     0.08100
H3224       H  0.94394923  0.36054049  0.50089389     0.04900
C3225       C  0.18777836  0.71782098  0.45506222    -0.20900
C3226       C  0.19487140  0.67690314  0.45334689    -0.07500
C3227       C  0.24297381  0.68633268  0.45097653     0.13400
C3228       C  0.28244853  0.73638290  0.45047449    -0.20900
C3229       C  0.27626015  0.77723761  0.45266134    -0.07500
C3230       C  0.22764682  0.76779066  0.45473267     0.13400
C3231       C  0.21681237  0.80990968  0.45628767    -0.24300
H3232       H  0.15055722  0.71055088  0.45668910     0.14700
H3233       H  0.31905617  0.74342957  0.44864971     0.14700
C3234       C  0.25525233  0.64515596  0.44939170    -0.24200
H3235       H  0.17595325  0.79549482  0.45710654     0.04900
H3236       H  0.22969809  0.83629501  0.45118139     0.08200
H3237       H  0.23595502  0.83044959  0.46175615     0.08200
H3238       H  0.26804445  0.64772530  0.44317537     0.08100
H3239       H  0.22346904  0.60669480  0.45044495     0.08100
H3240       H  0.28592177  0.64999679  0.45340124     0.04900
C3241       C  0.70295614  0.22115157  0.46170848    -0.20900
C3242       C  0.70115498  0.17516352  0.46033175    -0.07500
C3243       C  0.74653400  0.17505546  0.45877006     0.13400
C3244       C  0.79184036  0.22108438  0.45820579    -0.20900
C3245       C  0.79302851  0.26705038  0.45918188    -0.07500
C3246       C  0.74814793  0.26714861  0.46108370     0.13400
C3247       C  0.74696563  0.31556464  0.46201251    -0.24300
H3248       H  0.66834591  0.22126691  0.46287404     0.14700
H3249       H  0.82653737  0.22128303  0.45691460     0.14700
C3250       C  0.74782366  0.12680270  0.45775870    -0.24200
H3251       H  0.70810895  0.30840463  0.46293177     0.04900
H3252       H  0.76229372  0.33908195  0.45660978     0.08200
H3253       H  0.76947726  0.33682122  0.46721926     0.08200
H3254       H  0.72879305  0.10782551  0.45219966     0.08100
H3255       H  0.72917056  0.10141770  0.46287476     0.08100
H3256       H  0.78697087  0.13392397  0.45740057     0.04900
C3257       C  0.35815572  0.97167713  0.41941716    -0.20900
C3258       C  0.35583044  0.93365971  0.42437228    -0.07500
C3259       C  0.32100395  0.88247886  0.42250731     0.13400
C3260       C  0.29213489  0.87117839  0.41559790    -0.20900
C3261       C  0.29566421  0.90909176  0.41052538    -0.07500
C3262       C  0.32841160  0.96020614  0.41257746     0.13400
C3263       C  0.33357794  0.00304117  0.40750929    -0.24300
H3264       H  0.38395964  0.01083025  0.42084336     0.14700
H3265       H  0.26640889  0.83205838  0.41412788     0.14700
C3266       C  0.31247556  0.83909365  0.42779511    -0.24200
H3267       H  0.36257875  0.04028842  0.40982695     0.04900
H3268       H  0.29737295  0.00287577  0.40740521     0.08200
H3269       H  0.34470490  0.99929171  0.40140678     0.08200
H3270       H  0.30275795  0.84521468  0.43386817     0.08100
H3271       H  0.34651996  0.83524527  0.42791510     0.08100
H3272       H  0.28102155  0.80256436  0.42567609     0.04900
C3273       C  0.52916489  0.96904890  0.50467482    -0.20900
C3274       C  0.50162363  0.99029975  0.50789346    -0.07500
C3275       C  0.48824701  0.01878345  0.50289404     0.13400
C3276       C  0.50215558  0.02457585  0.49488868    -0.20900
C3277       C  0.52862817  0.00238936  0.49160593    -0.07500
C3278       C  0.54270586  0.97452752  0.49662368     0.13400
C3279       C  0.57271541  0.95123246  0.49362028    -0.24300
H3280       H  0.54045632  0.94808341  0.50850411     0.14700
H3281       H  0.49018810  0.04502670  0.49107929     0.14700
C3282       C  0.45741039  0.04146932  0.50579700    -0.24200
H3283       H  0.58393275  0.93462992  0.49849939     0.04900
H3284       H  0.60751095  0.98044364  0.49066712     0.08200
H3285       H  0.55006979  0.92040779  0.48940661     0.08200
H3286       H  0.47922576  0.07181301  0.51012998     0.08100
H3287       H  0.42208902  0.01179622  0.50856431     0.08100
H3288       H  0.44694916  0.05863992  0.50090419     0.04900
C3289       C  0.25391470  0.79418090  0.54081086    -0.20900
C3290       C  0.29667679  0.79046085  0.53896942    -0.07500
C3291       C  0.29104099  0.74215884  0.53773166     0.13400
C3292       C  0.24294350  0.69938038  0.53831927    -0.20900
C3293       C  0.20088403  0.70313019  0.54057743    -0.07500
C3294       C  0.20631967  0.75122469  0.54175008     0.13400
C3295       C  0.16225990  0.75761434  0.54395856    -0.24300
H3296       H  0.25823377  0.83109972  0.54183565     0.14700
H3297       H  0.23873918  0.66237708  0.53743385     0.14700
C3298       C  0.33463594  0.73337240  0.53636460    -0.24200
H3299       H  0.17292712  0.79799798  0.54423328     0.04900
H3300       H  0.14783796  0.74098324  0.54987872     0.08200
H3301       H  0.13195344  0.73885308  0.53950129     0.08200
H3302       H  0.33487625  0.70811246  0.54105996     0.08100
H3303       H  0.37179912  0.76808212  0.53649353     0.08100
H3304       H  0.33027901  0.71491016  0.53054188     0.04900
C3305       C  0.71069202  0.23451898  0.54992545    -0.20900
C3306       C  0.71660471  0.19297051  0.54805710    -0.07500
C3307       C  0.76542984  0.20121196  0.54646839     0.13400
C3308       C  0.80627012  0.25064336  0.54635795    -0.20900
C3309       C  0.80004402  0.29221654  0.54789403    -0.07500
C3310       C  0.75175252  0.28405178  0.54986908     0.13400
C3311       C  0.74276343  0.32728902  0.55156052    -0.24300
H3312       H  0.67338945  0.22837045  0.55116996     0.14700
H3313       H  0.84350319  0.25699359  0.54498145     0.14700
C3314       C  0.77521011  0.15826661  0.54504405    -0.24200
H3315       H  0.70231112  0.31404704  0.55259936     0.04900
H3316       H  0.75548068  0.35377094  0.54646581     0.08200
H3317       H  0.76356680  0.34761408  0.55695088     0.08200
H3318       H  0.75767234  0.13896742  0.53941739     0.08100
H3319       H  0.75984482  0.13104889  0.55003142     0.08100
H3320       H  0.81606497  0.17161868  0.54458366     0.04900
C3321       C  0.72858745  0.48732673  0.46419361    -0.20900
C3322       C  0.70723274  0.48430404  0.45669221    -0.07500
C3323       C  0.72884190  0.47480420  0.44998664     0.13400
C3324       C  0.77174604  0.47047602  0.45093793    -0.20900
C3325       C  0.79428567  0.47542088  0.45836931    -0.07500
C3326       C  0.77174179  0.48286510  0.46512265     0.13400
C3327       C  0.79356590  0.48753024  0.47325048    -0.24300
H3328       H  0.71184006  0.49398426  0.46936573     0.14700
H3329       H  0.78830593  0.46359811  0.44575711     0.14700
C3330       C  0.70660001  0.46780698  0.44181493    -0.24200
H3331       H  0.77193641  0.49483013  0.47781524     0.04900
H3332       H  0.83297715  0.51923563  0.47336798     0.08200
H3333       H  0.79262646  0.45191525  0.47485342     0.08200
H3334       H  0.70952829  0.50350304  0.43971258     0.08100
H3335       H  0.66661739  0.43732290  0.44191049     0.08100
H3336       H  0.72662555  0.45710658  0.43743568     0.04900
C3337       C  0.29085944  0.51075495  0.46101865    -0.20900
C3338       C  0.31312999  0.50937579  0.45383038    -0.07500
C3339       C  0.28555471  0.50062391  0.44672893     0.13400
C3340       C  0.23628851  0.49224327  0.44706803    -0.20900
C3341       C  0.21326397  0.49087443  0.45430869    -0.07500
C3342       C  0.24131751  0.50121569  0.46137298     0.13400
C3343       C  0.21976667  0.50280576  0.46931440    -0.24300
H3344       H  0.31203331  0.51811212  0.46645761     0.14700
H3345       H  0.21486721  0.48483936  0.44165488     0.14700
C3346       C  0.30622410  0.49700646  0.43882871    -0.24200
H3347       H  0.24836154  0.51522192  0.47407803     0.04900
H3348       H  0.18904182  0.46459320  0.47091704     0.08200
H3349       H  0.20534909  0.52958952  0.46913174     0.08200
H3350       H  0.31559759  0.46642975  0.43902699     0.08100
H3351       H  0.34012983  0.53348184  0.43733477     0.08100
H3352       H  0.27858198  0.48802096  0.43399532     0.04900
C3353       C  0.44754342  0.19508015  0.45637312    -0.20900
C3354       C  0.49015842  0.19319567  0.45873398    -0.07500
C3355       C  0.53209717  0.23726331  0.46177976     0.13400
C3356       C  0.53063471  0.28234209  0.46215519    -0.20900
C3357       C  0.48870655  0.28479986  0.45947775    -0.07500
C3358       C  0.44609157  0.24001911  0.45667561     0.13400
C3359       C  0.39860470  0.23856221  0.45397385    -0.24300
H3360       H  0.41524597  0.16108525  0.45416256     0.14700
H3361       H  0.56342277  0.31643907  0.46421133     0.14700
C3362       C  0.57964004  0.23801076  0.46420900    -0.24200
H3363       H  0.36781192  0.19941963  0.45285304     0.04900
H3364       H  0.40545282  0.25943872  0.44832815     0.08200
H3365       H  0.38532299  0.25490971  0.45859619     0.08200
H3366       H  0.59357885  0.22466089  0.45923452     0.08100
H3367       H  0.57242179  0.21358436  0.46944906     0.08100
H3368       H  0.60986124  0.27652314  0.46582736     0.04900
C3369       C  0.53785547  0.79513256  0.45439828    -0.20900
C3370       C  0.48925596  0.78681591  0.45299768    -0.07500
C3371       C  0.45057573  0.73813582  0.45092567     0.13400
C3372       C  0.46092147  0.69852911  0.45064708    -0.20900
C3373       C  0.50906388  0.70639127  0.45236591    -0.07500
C3374       C  0.54843177  0.75567527  0.45406373     0.13400
C3375       C  0.60179317  0.76741067  0.45532243    -0.24300
H3376       H  0.56778401  0.83289359  0.45579805     0.14700
H3377       H  0.43068478  0.66076320  0.44933316     0.14700
C3378       C  0.39791508  0.72712861  0.44940077    -0.24200
H3379       H  0.62807504  0.80857010  0.45593502     0.04900
H3380       H  0.61433746  0.75395902  0.45017696     0.08200
H3381       H  0.60454424  0.74916915  0.46081722     0.08200
H3382       H  0.39746010  0.74896702  0.44419599     0.08100
H3383       H  0.38370317  0.73738919  0.45471318     0.08100
H3384       H  0.37210486  0.68658048  0.44812892     0.04900
C3385       C  0.58755697  0.69589604  0.41518916    -0.20900
C3386       C  0.62079983  0.69183951  0.40993664    -0.07500
C3387       C  0.63776993  0.65764351  0.41177454     0.13400
C3388       C  0.62039283  0.62811911  0.41868328    -0.20900
C3389       C  0.58599208  0.63110802  0.42383184    -0.07500
C3390       C  0.57006240  0.66644286  0.42208881     0.13400
C3391       C  0.53535979  0.67453162  0.42746157    -0.24300
H3392       H  0.57479405  0.72228297  0.41384455     0.14700
H3393       H  0.63300967  0.60155879  0.41997001     0.14700
C3394       C  0.67250706  0.65025214  0.40635364    -0.24200
H3395       H  0.53027109  0.70615611  0.42541301     0.04900
H3396       H  0.55120342  0.68380570  0.43352727     0.08200
H3397       H  0.49750544  0.64031596  0.42757737     0.08200
H3398       H  0.70944786  0.68549211  0.40605621     0.08100
H3399       H  0.65576706  0.63963947  0.40035817     0.08100
H3400       H  0.67934568  0.61988948  0.40848392     0.04900
C3401       C  0.25349807  0.46707099  0.53564575    -0.20900
C3402       C  0.28296449  0.48206736  0.54253726    -0.07500
C3403       C  0.27098943  0.50523176  0.54872853     0.13400
C3404       C  0.22845194  0.51043511  0.54803540    -0.20900
C3405       C  0.19766569  0.49351328  0.54130957    -0.07500
C3406       C  0.21068089  0.47219461  0.53496924     0.13400
C3407       C  0.17854997  0.45279753  0.52766930    -0.24300
H3408       H  0.26341527  0.45020021  0.53084506     0.14700
H3409       H  0.21868160  0.52736047  0.55284879     0.14700
C3410       C  0.30354052  0.52591832  0.55598043    -0.24200
H3411       H  0.19347228  0.43571408  0.52344053     0.04900
H3412       H  0.17751483  0.48426574  0.52458780     0.08200
H3413       H  0.13975460  0.42348677  0.52933428     0.08200
H3414       H  0.34280014  0.55327032  0.55420280     0.08100
H3415       H  0.30275884  0.49478604  0.55944508     0.08100
H3416       H  0.29023736  0.54582055  0.55993394     0.04900
C3417       C  0.71045843  0.48136723  0.53881821    -0.20900
C3418       C  0.68424915  0.47266117  0.54600726    -0.07500
C3419       C  0.70752042  0.46974943  0.55307316     0.13400
C3420       C  0.75659749  0.47752102  0.55272890    -0.20900
C3421       C  0.78332699  0.48842136  0.54556613    -0.07500
C3422       C  0.75929058  0.48926612  0.53847692     0.13400
C3423       C  0.78374343  0.49705093  0.53044875    -0.24300
H3424       H  0.69269889  0.48223474  0.53333840     0.14700
H3425       H  0.77451676  0.47574258  0.55813459     0.14700
C3426       C  0.68201603  0.45964950  0.56102899    -0.24200
H3427       H  0.75756407  0.49233787  0.52557273     0.04900
H3428       H  0.79612936  0.46901698  0.52951653     0.08200
H3429       H  0.81618979  0.53593990  0.52997368     0.08200
H3430       H  0.64763023  0.42190245  0.56105842     0.08100
H3431       H  0.67226944  0.48920836  0.56237391     0.08100
H3432       H  0.70660865  0.45995727  0.56586217     0.04900
C3433       C  0.50290878  0.75557084  0.53397566    -0.20900
C3434       C  0.48831638  0.76986415  0.54096922    -0.07500
C3435       C  0.46559584  0.73397310  0.54711542     0.13400
C3436       C  0.46075134  0.68620491  0.54629328    -0.20900
C3437       C  0.47806363  0.67295084  0.53952589    -0.07500
C3438       C  0.49863387  0.70770847  0.53322043     0.13400
C3439       C  0.51853638  0.69551471  0.52591117    -0.24300
H3440       H  0.51949700  0.78266085  0.52920096     0.14700
H3441       H  0.44460516  0.65926419  0.55110382     0.14700
C3442       C  0.44552041  0.74521088  0.55452077    -0.24200
H3443       H  0.53450796  0.72739291  0.52164198     0.04900
H3444       H  0.48769949  0.66215948  0.52291378     0.08200
H3445       H  0.54870002  0.68728451  0.52755259     0.08200
H3446       H  0.41838050  0.75770937  0.55293093     0.08100
H3447       H  0.47685137  0.77492896  0.55801205     0.08100
H3448       H  0.42567137  0.71149290  0.55838938     0.04900
C3449       C  0.44691242  0.21949337  0.54697571    -0.20900
C3450       C  0.48848584  0.26633766  0.54893399    -0.07500
C3451       C  0.53427367  0.26877150  0.55112031     0.13400
C3452       C  0.53769439  0.22474435  0.55083642    -0.20900
C3453       C  0.49695752  0.17868037  0.54836600    -0.07500
C3454       C  0.45042448  0.17567940  0.54667423     0.13400
C3455       C  0.40401502  0.12641452  0.54464653    -0.24300
H3456       H  0.41150807  0.21728722  0.54551274     0.14700
H3457       H  0.57311311  0.22673609  0.55221390     0.14700
C3458       C  0.58043178  0.31760877  0.55339661    -0.24200
H3459       H  0.37022470  0.13062805  0.54418109     0.04900
H3460       H  0.39666037  0.09808751  0.54932838     0.08200
H3461       H  0.40884860  0.11231334  0.53886258     0.08200
H3462       H  0.57299712  0.33253296  0.55890129     0.08100
H3463       H  0.59101851  0.34561903  0.54854775     0.08100
H3464       H  0.61319360  0.31247312  0.55454635     0.04900
C3465       C  0.50393788  0.44739935  0.50473929    -0.20900
C3466       C  0.49506420  0.48534357  0.50768315    -0.07500
C3467       C  0.48275929  0.51275109  0.50231190     0.13400
C3468       C  0.47765543  0.50021692  0.49425306    -0.20900
C3469       C  0.48575316  0.46182790  0.49128877    -0.07500
C3470       C  0.49979560  0.43552456  0.49662198     0.13400
C3471       C  0.50917664  0.39420294  0.49386186    -0.24300
H3472       H  0.51368429  0.42644988  0.50884096     0.14700
H3473       H  0.46881467  0.52195749  0.49017441     0.14700
C3474       C  0.47764253  0.55702178  0.50493689    -0.24200
H3475       H  0.51695292  0.37576786  0.49888940     0.04900
H3476       H  0.54232908  0.40994208  0.48988523     0.08200
H3477       H  0.47563999  0.36493308  0.49068212     0.08200
H3478       H  0.51241325  0.58489048  0.50803050     0.08100
H3479       H  0.44491042  0.54428293  0.50894178     0.08100
H3480       H  0.47177258  0.57645066  0.49985013     0.04900
C3481       C  0.12580688  0.70321404  0.91487951    -0.20900
C3482       C  0.08809402  0.69659109  0.90953921    -0.07500
C3483       C  0.03729312  0.66137534  0.91140911     0.13400
C3484       C  0.02589330  0.63364765  0.91849739    -0.20900
C3485       C  0.06370251  0.63981029  0.92380387    -0.07500
C3486       C  0.11453815  0.67573393  0.92197354     0.13400
C3487       C  0.15741489  0.68673302  0.92749835    -0.24300
H3488       H  0.16462809  0.73044053  0.91349780     0.14700
H3489       H  0.98707874  0.60621871  0.91983634     0.14700
C3490       C  0.99489513  0.65130362  0.90586616    -0.24200
H3491       H  0.19358491  0.71881600  0.92538045     0.04900
H3492       H  0.16271117  0.65354891  0.92792256     0.08200
H3493       H  0.14975188  0.69674480  0.93344832     0.08200
H3494       H  0.00211757  0.64041048  0.89995413     0.08100
H3495       H  0.99126751  0.68544934  0.90533911     0.08100
H3496       H  0.95824652  0.62020820  0.90803259     0.04900
C3497       C  0.15966760  0.78257478  0.83812575    -0.20900
C3498       C  0.15183208  0.82157005  0.84088659    -0.07500
C3499       C  0.13617828  0.84601726  0.83546334     0.13400
C3500       C  0.12939097  0.83126334  0.82748597    -0.20900
C3501       C  0.13815221  0.79296828  0.82469498    -0.07500
C3502       C  0.15295507  0.76792481  0.83013006     0.13400
C3503       C  0.16023916  0.72486851  0.82760521    -0.24300
H3504       H  0.17082750  0.76304966  0.84228388     0.14700
H3505       H  0.11884786  0.85123275  0.82332457     0.14700
C3506       C  0.12878153  0.88913507  0.83792045    -0.24200
H3507       H  0.16882908  0.70764568  0.83271408     0.04900
H3508       H  0.19205750  0.73838429  0.82339330     0.08200
H3509       H  0.12540319  0.69514224  0.82476084     0.08200
H3510       H  0.16340740  0.91899296  0.84079405     0.08100
H3511       H  0.09661398  0.87542194  0.84205959     0.08100
H3512       H  0.12036891  0.90630355  0.83278365     0.04900
C3513       C  0.36523883  0.78272302  0.79365681    -0.20900
C3514       C  0.36841963  0.82846150  0.79142152    -0.07500
C3515       C  0.41617905  0.87133207  0.79017985     0.13400
C3516       C  0.45939135  0.86726650  0.79116484    -0.20900
C3517       C  0.45633433  0.82097197  0.79304157    -0.07500
C3518       C  0.40838729  0.77801282  0.79426872     0.13400
C3519       C  0.40202311  0.72651223  0.79567016    -0.24300
H3520       H  0.32845838  0.74979989  0.79456522     0.14700
H3521       H  0.49598411  0.90022809  0.79014949     0.14700
C3522       C  0.42192498  0.92138879  0.78780676    -0.24200
H3523       H  0.36175806  0.69695154  0.79610191     0.04900
H3524       H  0.42049068  0.72624294  0.80128683     0.08200
H3525       H  0.41888156  0.71637471  0.79068595     0.08200
H3526       H  0.40284395  0.93318057  0.79218685     0.08100
H3527       H  0.40531206  0.91825809  0.78187367     0.08100
H3528       H  0.46206201  0.95140870  0.78747634     0.04900
C3529       C  0.88427601  0.81765460  0.79300609    -0.20900
C3530       C  0.86242017  0.81235861  0.78555574    -0.07500
C3531       C  0.89096860  0.81728911  0.77869415     0.13400
C3532       C  0.94018298  0.82580051  0.77951876    -0.20900
C3533       C  0.96163672  0.82961605  0.78701448    -0.07500
C3534       C  0.93327260  0.82641586  0.79386009     0.13400
C3535       C  0.95402951  0.83314872  0.80212864    -0.24300
H3536       H  0.86275203  0.81522100  0.79824738     0.14700
H3537       H  0.96150965  0.82812668  0.77426417     0.14700
C3538       C  0.86931255  0.81169743  0.77051879    -0.24200
H3539       H  0.92820114  0.83450447  0.80660344     0.04900
H3540       H  0.99026101  0.86917874  0.80252329     0.08200
H3541       H  0.95909316  0.80087373  0.80374215     0.08200
H3542       H  0.86115650  0.84252411  0.76933244     0.08100
H3543       H  0.83419210  0.77469608  0.76999396     0.08100
H3544       H  0.89586398  0.81360662  0.76587841     0.04900
C3545       C  0.63856971  0.96689627  0.92102298    -0.20900
C3546       C  0.58714960  0.94978379  0.92222781    -0.07500
C3547       C  0.55261679  0.92018449  0.91626509     0.13400
C3548       C  0.57011957  0.90797186  0.90943133    -0.20900
C3549       C  0.62127286  0.92430771  0.90824229    -0.07500
C3550       C  0.65609950  0.95444538  0.91415131     0.13400
C3551       C  0.71139536  0.97214714  0.91344694    -0.24300
H3552       H  0.66519241  0.98932591  0.92557851     0.14700
H3553       H  0.54324714  0.88506388  0.90495615     0.14700
C3554       C  0.49720184  0.90174641  0.91691564    -0.24200
H3555       H  0.73237892  0.99258288  0.91882573     0.04900
H3556       H  0.72782693  0.99844797  0.90837255     0.08200
H3557       H  0.71691661  0.93927065  0.91262092     0.08200
H3558       H  0.49109203  0.93389833  0.91813772     0.08100
H3559       H  0.48074767  0.87315007  0.92167043     0.08100
H3560       H  0.47680984  0.88338419  0.91138505     0.04900
C3561       C  0.43767916  0.83716760  0.87154115    -0.20900
C3562       C  0.45875541  0.83821811  0.87890863    -0.07500
C3563       C  0.42924928  0.82940541  0.88582108     0.13400
C3564       C  0.37994389  0.82079753  0.88512667    -0.20900
C3565       C  0.35901411  0.82042882  0.87771906    -0.07500
C3566       C  0.38859179  0.82824814  0.87080772     0.13400
C3567       C  0.36916922  0.82583755  0.86254584    -0.24300
H3568       H  0.45970622  0.84250772  0.86623696     0.14700
H3569       H  0.35792186  0.81511768  0.89044004     0.14700
C3570       C  0.44980948  0.83093462  0.89396061    -0.24200
H3571       H  0.39661782  0.82925104  0.85795293     0.04900
H3572       H  0.36196584  0.85745654  0.86153984     0.08200
H3573       H  0.33466223  0.78888568  0.86165782     0.08200
H3574       H  0.48465647  0.86770605  0.89481598     0.08100
H3575       H  0.45781867  0.79964179  0.89470793     0.08100
H3576       H  0.42276381  0.82682177  0.89867465     0.04900
C3577       C  0.89875346  0.85371492  0.88155629    -0.20900
C3578       C  0.87086718  0.83867594  0.87450142    -0.07500
C3579       C  0.88664518  0.81914925  0.86828438     0.13400
C3580       C  0.92938532  0.81428654  0.86935486    -0.20900
C3581       C  0.95646700  0.82805275  0.87651019    -0.07500
C3582       C  0.94125553  0.84876804  0.88265304     0.13400
C3583       C  0.97016324  0.86711293  0.89028420    -0.24300
H3584       H  0.88665502  0.86896489  0.88631472     0.14700
H3585       H  0.94136073  0.79893229  0.86459895     0.14700
C3586       C  0.85764633  0.80170972  0.86066731    -0.24200
H3587       H  0.95428441  0.88481226  0.89420197     0.04900
H3588       H  0.00989161  0.89577656  0.88900767     0.08200
H3589       H  0.96863546  0.83502944  0.89357686     0.08200
H3590       H  0.85749150  0.83392049  0.85768463     0.08100
H3591       H  0.81836396  0.77173407  0.86190564     0.08100
H3592       H  0.87456766  0.78612849  0.85653077     0.04900
C3593       C  0.63287195  0.78116088  0.83713532    -0.20900
C3594       C  0.66698688  0.82646824  0.84091352    -0.07500
C3595       C  0.68639956  0.87203173  0.83655003     0.13400
C3596       C  0.67246237  0.87056757  0.82858669    -0.20900
C3597       C  0.63933864  0.82504703  0.82474638    -0.07500
C3598       C  0.61864035  0.77972450  0.82920419     0.13400
C3599       C  0.58220592  0.72922776  0.82571041    -0.24300
H3600       H  0.61700113  0.74612266  0.84043142     0.14700
H3601       H  0.68850136  0.90553223  0.82526814     0.14700
C3602       C  0.72111907  0.92265244  0.84018908    -0.24200
H3603       H  0.57092988  0.69800225  0.83002534     0.04900
H3604       H  0.59951697  0.72111664  0.82056321     0.08200
H3605       H  0.54756015  0.72936528  0.82393355     0.08200
H3606       H  0.75698120  0.92474110  0.84185462     0.08100
H3607       H  0.70309284  0.92846463  0.84546491     0.08100
H3608       H  0.73036595  0.95412681  0.83601034     0.04900
C3609       C  0.13995380  0.09470360  0.77955004    -0.20900
C3610       C  0.12903267  0.10773164  0.78696352    -0.07500
C3611       C  0.12635680  0.07888808  0.79369777     0.13400
C3612       C  0.13685105  0.03965804  0.79287857    -0.20900
C3613       C  0.15010814  0.02821306  0.78556056    -0.07500
C3614       C  0.15099568  0.05559352  0.77875337     0.13400
C3615       C  0.16571497  0.04667067  0.77065631    -0.24300
H3616       H  0.14234842  0.11678817  0.77438215     0.14700
H3617       H  0.13474710  0.01758456  0.79803448     0.14700
C3618       C  0.11189685  0.08840257  0.80177734    -0.24200
H3619       H  0.19817306  0.08221496  0.76842745     0.04900
H3620       H  0.13368416  0.03489449  0.76652907     0.08200
H3621       H  0.17716485  0.01768803  0.77058029     0.08200
H3622       H  0.07622394  0.08923391  0.80141573     0.08100
H3623       H  0.14229345  0.12450932  0.80417300     0.08100
H3624       H  0.10613041  0.05847761  0.80606852     0.04900
C3625       C  0.19273864  0.61506489  0.79468601    -0.20900
C3626       C  0.14836563  0.61636604  0.79333348    -0.07500
C3627       C  0.10317709  0.57064875  0.79180990     0.13400
C3628       C  0.10434509  0.52567123  0.79105022    -0.20900
C3629       C  0.14913096  0.52474548  0.79196523    -0.07500
C3630       C  0.19361371  0.56968314  0.79411394     0.13400
C3631       C  0.24252397  0.57057271  0.79549910    -0.24300
H3632       H  0.22726715  0.64999193  0.79587983     0.14700
H3633       H  0.06999350  0.49087590  0.78971857     0.14700
C3634       C  0.05332033  0.56871811  0.79107870    -0.24200
H3635       H  0.27396521  0.60935802  0.79663492     0.04900
H3636       H  0.25233333  0.55578012  0.79022604     0.08200
H3637       H  0.23915392  0.54721160  0.80073100     0.08200
H3638       H  0.05234636  0.58798736  0.78559460     0.08100
H3639       H  0.04712472  0.58690218  0.79630521     0.08100
H3640       H  0.02153310  0.52931623  0.79077291     0.04900
C3641       C  0.41232719  0.58849877  0.78451953    -0.20900
C3642       C  0.44672293  0.59840051  0.79063360    -0.07500
C3643       C  0.43224109  0.56505478  0.79718453     0.13400
C3644       C  0.38392373  0.52206756  0.79733212    -0.20900
C3645       C  0.35001846  0.51206128  0.79113095    -0.07500
C3646       C  0.36414926  0.54608809  0.78470038     0.13400
C3647       C  0.32825246  0.53850816  0.77806415    -0.24300
H3648       H  0.42303006  0.61465508  0.77960122     0.14700
H3649       H  0.37296747  0.49554896  0.80219981     0.14700
C3650       C  0.46786920  0.57349322  0.80387986    -0.24200
H3651       H  0.34446603  0.57065639  0.77384457     0.04900
H3652       H  0.29306325  0.53492626  0.78049079     0.08200
H3653       H  0.31927058  0.50406616  0.77468002     0.08200
H3654       H  0.47643694  0.60827527  0.80712419     0.08100
H3655       H  0.50319988  0.57683066  0.80153280     0.08100
H3656       H  0.45144162  0.54187581  0.80819582     0.04900
C3657       C  0.84198140  0.04601078  0.78844115    -0.20900
C3658       C  0.85053168  0.00587892  0.78684168    -0.07500
C3659       C  0.89972333  0.01619754  0.78506076     0.13400
C3660       C  0.93887439  0.06647020  0.78488044    -0.20900
C3661       C  0.93062058  0.10669164  0.78664037    -0.07500
C3662       C  0.88131939  0.09623799  0.78842451     0.13400
C3663       C  0.86948987  0.13749772  0.79016183    -0.24300
H3664       H  0.80407187  0.03785697  0.78977017     0.14700
H3665       H  0.97672284  0.07414842  0.78362997     0.14700
C3666       C  0.91310035  0.97559509  0.78372365    -0.24200
H3667       H  0.82846103  0.12237507  0.79091587     0.04900
H3668       H  0.88261828  0.16496118  0.78520067     0.08200
H3669       H  0.88798778  0.15703750  0.79573168     0.08200
H3670       H  0.92904545  0.97955788  0.77769356     0.08100
H3671       H  0.88081425  0.93688902  0.78436539     0.08100
H3672       H  0.94180190  0.97980928  0.78811325     0.04900
C3673       C  0.32974566  0.35736273  0.91238708    -0.20900
C3674       C  0.31048466  0.38771240  0.90959740    -0.07500
C3675       C  0.32182094  0.43177585  0.91400346     0.13400
C3676       C  0.35111900  0.44351347  0.92088537    -0.20900
C3677       C  0.37042729  0.41334602  0.92368517    -0.07500
C3678       C  0.35937479  0.36935970  0.91929184     0.13400
C3679       C  0.37879691  0.33475922  0.92168089    -0.24300
H3680       H  0.32197361  0.32390595  0.90909192     0.14700
H3681       H  0.35884995  0.47709073  0.92413620     0.14700
C3682       C  0.30281190  0.46689176  0.91172831    -0.24200
H3683       H  0.36756776  0.30331189  0.91742510     0.04900
H3684       H  0.36322417  0.31767754  0.92754077     0.08200
H3685       H  0.42051592  0.35611347  0.92188863     0.08200
H3686       H  0.26115988  0.44563885  0.91160873     0.08100
H3687       H  0.31845221  0.48455602  0.90590175     0.08100
H3688       H  0.31418590  0.49814700  0.91602825     0.04900
C3689       C  0.15463357  0.28273974  0.82789244    -0.20900
C3690       C  0.18862285  0.32986924  0.82452856    -0.07500
C3691       C  0.21400485  0.37186533  0.82960251     0.13400
C3692       C  0.20372456  0.36580653  0.83778171    -0.20900
C3693       C  0.16889404  0.31883681  0.84110799    -0.07500
C3694       C  0.14430098  0.27663891  0.83604547     0.13400
C3695       C  0.10562759  0.22539993  0.83907632    -0.24300
H3696       H  0.13446462  0.25037971  0.82406859     0.14700
H3697       H  0.22344332  0.39816097  0.84163516     0.14700
C3698       C  0.25291134  0.42278869  0.82651190    -0.24200
H3699       H  0.08703349  0.19806494  0.83418914     0.04900
H3700       H  0.07602731  0.22813005  0.84244953     0.08200
H3701       H  0.12405213  0.21007236  0.84288509     0.08200
H3702       H  0.23497721  0.43840076  0.82264760     0.08100
H3703       H  0.28214283  0.41937462  0.82314553     0.08100
H3704       H  0.27181248  0.45017929  0.83138013     0.04900
C3705       C  0.96997382  0.09131021  0.87220671    -0.20900
C3706       C  0.97179501  0.13795985  0.87263565    -0.07500
C3707       C  0.92626276  0.13896526  0.87319202     0.13400
C3708       C  0.88047115  0.09344001  0.87381988    -0.20900
C3709       C  0.87887532  0.04693976  0.87373929    -0.07500
C3710       C  0.92404897  0.04572193  0.87278192     0.13400
C3711       C  0.92423858  0.99657504  0.87277072    -0.24300
H3712       H  0.00483377  0.09054998  0.87181102     0.14700
H3713       H  0.84561278  0.09406839  0.87438150     0.14700
C3714       C  0.92552658  0.18778517  0.87297215    -0.24200
H3715       H  0.96296712  0.00266622  0.87229351     0.04900
H3716       H  0.90239149  0.97317357  0.86766836     0.08200
H3717       H  0.90732781  0.97567805  0.87834679     0.08200
H3718       H  0.94560624  0.20965146  0.86761552     0.08100
H3719       H  0.94359488  0.21022781  0.87833664     0.08100
H3720       H  0.88653943  0.18119727  0.87278681     0.04900
C3721       C  0.39250914  0.57664016  0.88457239    -0.20900
C3722       C  0.39660726  0.53683546  0.88116505    -0.07500
C3723       C  0.44398165  0.54710484  0.87815833     0.13400
C3724       C  0.48440897  0.59680962  0.87825260    -0.20900
C3725       C  0.47928723  0.63693245  0.88119506    -0.07500
C3726       C  0.43290106  0.62640573  0.88459197     0.13400
C3727       C  0.42458379  0.66745110  0.88788255    -0.24300
H3728       H  0.35677154  0.56930205  0.88698595     0.14700
H3729       H  0.52029259  0.60465455  0.87581508     0.14700
C3730       C  0.45298010  0.50651494  0.87484683    -0.24200
H3731       H  0.38527100  0.65251725  0.88993818     0.04900
H3732       H  0.43241036  0.69621139  0.88325242     0.08200
H3733       H  0.44954082  0.68544213  0.89303612     0.08200
H3734       H  0.43142267  0.49117599  0.86929966     0.08100
H3735       H  0.44185078  0.47588843  0.87926702     0.08100
H3736       H  0.49322057  0.52124310  0.87337275     0.04900
C3737       C  0.21633547  0.06944685  0.87578415    -0.20900
C3738       C  0.17032819  0.02709025  0.87360261    -0.07500
C3739       C  0.12768863  0.03256051  0.87252494     0.13400
C3740       C  0.13229436  0.08010660  0.87368226    -0.20900
C3741       C  0.17782016  0.12170486  0.87617890    -0.07500
C3742       C  0.22046012  0.11641354  0.87719245     0.13400
C3743       C  0.27044336  0.16013995  0.87966637    -0.24300
H3744       H  0.24907298  0.06532157  0.87664480     0.14700
H3745       H  0.09976777  0.08462129  0.87283620     0.14700
C3746       C  0.07686951  0.98825473  0.87056870    -0.24200
H3747       H  0.30027612  0.14974048  0.87982322     0.04900
H3748       H  0.26727340  0.17258963  0.88569138     0.08200
H3749       H  0.28236127  0.19189276  0.87543800     0.08200
H3750       H  0.06547311  0.95860731  0.87517480     0.08100
H3751       H  0.07837890  0.97268608  0.86472203     0.08100
H3752       H  0.04744140  0.99917876  0.87028325     0.04900
C3753       C  0.20209932  0.61315058  0.88302966    -0.20900
C3754       C  0.15610383  0.60684582  0.88024105    -0.07500
C3755       C  0.11918765  0.55887220  0.87741352     0.13400
C3756       C  0.13020367  0.51970018  0.87715327    -0.20900
C3757       C  0.17679363  0.52664626  0.87966318    -0.07500
C3758       C  0.21296438  0.57381432  0.88278479     0.13400
C3759       C  0.26386450  0.58389407  0.88553781    -0.24300
H3760       H  0.23061057  0.64967038  0.88520241     0.14700
H3761       H  0.10206886  0.48313424  0.87492946     0.14700
C3762       C  0.06777708  0.54785907  0.87477035    -0.24200
H3763       H  0.28832888  0.62379799  0.88734119     0.04900
H3764       H  0.28319430  0.57583851  0.88067957     0.08200
H3765       H  0.25964765  0.56001584  0.89074522     0.08200
H3766       H  0.07080614  0.56910603  0.86928705     0.08100
H3767       H  0.04958650  0.55811832  0.87953077     0.08100
H3768       H  0.04275839  0.50725803  0.87342022     0.04900
C3769       C  0.21822103  0.97538421  0.74350043    -0.20900
C3770       C  0.27004507  0.00544209  0.74195662    -0.07500
C3771       C  0.30438018  0.00500902  0.74751504     0.13400
C3772       C  0.28582206  0.97554778  0.75443083    -0.20900
C3773       C  0.23391636  0.94635446  0.75601702    -0.07500
C3774       C  0.19972239  0.94624872  0.75038864     0.13400
C3775       C  0.14348360  0.91464586  0.75139248    -0.24300
H3776       H  0.19144030  0.97442032  0.73924055     0.14700
H3777       H  0.31227625  0.97601640  0.75871017     0.14700
C3778       C  0.36050994  0.03609657  0.74636645    -0.24200
H3779       H  0.12295788  0.91675318  0.74613814     0.04900
H3780       H  0.13094752  0.92819298  0.75651905     0.08200
H3781       H  0.13270599  0.87453749  0.75221236     0.08200
H3782       H  0.37192981  0.07650279  0.74569485     0.08100
H3783       H  0.37190677  0.02294512  0.74105536     0.08100
H3784       H  0.38132950  0.03281913  0.75148286     0.04900
C3785       C  0.28743484  0.13231666  0.67137931    -0.20900
C3786       C  0.33162638  0.17413083  0.67422601    -0.07500
C3787       C  0.36991479  0.20481354  0.66883676     0.13400
C3788       C  0.36318277  0.19249298  0.66074523    -0.20900
C3789       C  0.31924294  0.15006630  0.65792110    -0.07500
C3790       C  0.28088015  0.11957557  0.66333584     0.13400
C3791       C  0.23427862  0.07207415  0.66078550    -0.24300
H3792       H  0.25849936  0.10807796  0.67554625     0.14700
H3793       H  0.39238613  0.21629927  0.65657826     0.14700
C3794       C  0.41706916  0.25104355  0.67155533    -0.24200
H3795       H  0.21012436  0.05103948  0.66590726     0.04900
H3796       H  0.24496219  0.04684130  0.65768597     0.08200
H3797       H  0.21150896  0.08141070  0.65681376     0.08200
H3798       H  0.43832177  0.24022244  0.67563067     0.08100
H3799       H  0.40710932  0.27683447  0.67465119     0.08100
H3800       H  0.44215132  0.27188398  0.66650919     0.04900
C3801       C  0.40127292  0.27438054  0.58395886    -0.20900
C3802       C  0.37277637  0.28280442  0.58962299    -0.07500
C3803       C  0.36059340  0.32104340  0.58817969     0.13400
C3804       C  0.37794837  0.35012837  0.58121287    -0.20900
C3805       C  0.40738589  0.34236326  0.57562343    -0.07500
C3806       C  0.41843132  0.30318647  0.57698909     0.13400
C3807       C  0.44690981  0.29014471  0.57105053    -0.24300
H3808       H  0.41018982  0.24478784  0.58499804     0.14700
H3809       H  0.36916004  0.37981640  0.58018818     0.14700
C3810       C  0.33095470  0.33277821  0.59406308    -0.24200
H3811       H  0.44850158  0.25605446  0.57283090     0.04900
H3812       H  0.48626394  0.32154605  0.57052114     0.08200
H3813       H  0.42809726  0.28239551  0.56520261     0.08200
H3814       H  0.34989467  0.34166560  0.59990770     0.08100
H3815       H  0.29235633  0.30003209  0.59463360     0.08100
H3816       H  0.32750878  0.36568870  0.59219129     0.04900
C3817       C  0.55831207  0.43485936  0.70768027    -0.20900
C3818       C  0.60459582  0.43649942  0.70727443    -0.07500
C3819       C  0.60573550  0.39185921  0.70546638     0.13400
C3820       C  0.56026554  0.34616294  0.70460100    -0.20900
C3821       C  0.51380937  0.34409990  0.70538988    -0.07500
C3822       C  0.51295566  0.38946620  0.70665513     0.13400
C3823       C  0.46446920  0.39064080  0.70680047    -0.24300
H3824       H  0.55769387  0.46943366  0.70877169     0.14700
H3825       H  0.56099085  0.31153139  0.70363992     0.14700
C3826       C  0.65460624  0.39166569  0.70475267    -0.24200
H3827       H  0.47135606  0.42986355  0.70691003     0.04900
H3828       H  0.44252134  0.37151135  0.71217047     0.08200
H3829       H  0.44209002  0.37193225  0.70143427     0.08200
H3830       H  0.67716295  0.40718351  0.71021639     0.08100
H3831       H  0.67629790  0.41464323  0.69958579     0.08100
H3832       H  0.64829721  0.35298964  0.70386514     0.04900
C3833       C  0.04697356  0.84003519  0.70865271    -0.20900
C3834       C  0.00883438  0.84457287  0.71251545    -0.07500
C3835       C  0.02185553  0.88937606  0.71669211     0.13400
C3836       C  0.07217286  0.92850394  0.71672609    -0.20900
C3837       C  0.10995154  0.92479794  0.71255538    -0.07500
C3838       C  0.09700711  0.87916529  0.70857668     0.13400
C3839       C  0.13521191  0.87013898  0.70437030    -0.24300
H3840       H  0.03756251  0.80527788  0.70560788     0.14700
H3841       H  0.08175255  0.96278345  0.71990683     0.14700
C3842       C  0.98293221  0.89748195  0.72077193    -0.24200
H3843       H  0.11842958  0.83086609  0.70215319     0.04900
H3844       H  0.16580373  0.87650004  0.70851110     0.08200
H3845       H  0.15073048  0.89532188  0.69915134     0.08200
H3846       H  0.96482043  0.86975889  0.72563154     0.08100
H3847       H  0.99953034  0.93571351  0.72339928     0.08100
H3848       H  0.95448757  0.89342316  0.71637079     0.04900
C3849       C  0.74894030  0.75173296  0.74329853    -0.20900
C3850       C  0.72791165  0.69980699  0.74181691    -0.07500
C3851       C  0.69253975  0.66519692  0.74733046     0.13400
C3852       C  0.67979497  0.68351380  0.75408081    -0.20900
C3853       C  0.70156672  0.73546762  0.75559965    -0.07500
C3854       C  0.73663673  0.76999334  0.75005707     0.13400
C3855       C  0.76061731  0.82631327  0.75102603    -0.24300
H3856       H  0.77545843  0.77871393  0.73909819     0.14700
H3857       H  0.65332097  0.65682559  0.75831774     0.14700
C3858       C  0.66903281  0.60895746  0.74634607    -0.24200
H3859       H  0.78424728  0.84713530  0.74584844     0.04900
H3860       H  0.78557396  0.83902986  0.75627093     0.08200
H3861       H  0.73093065  0.83665951  0.75162383     0.08200
H3862       H  0.69887553  0.59869554  0.74587781     0.08100
H3863       H  0.64511554  0.59643402  0.74098029     0.08100
H3864       H  0.64466457  0.58799374  0.75145089     0.04900
C3865       C  0.08417300  0.85596118  0.62340785    -0.20900
C3866       C  0.03973050  0.85393938  0.62590000    -0.07500
C3867       C  0.04222466  0.89776909  0.62916080     0.13400
C3868       C  0.08879789  0.94278343  0.62954100    -0.20900
C3869       C  0.13294239  0.94551854  0.62663973    -0.07500
C3870       C  0.13063536  0.90077715  0.62374772     0.13400
C3871       C  0.17665629  0.89916402  0.62103876    -0.24300
H3872       H  0.08238445  0.82212631  0.62107295     0.14700
H3873       H  0.09029027  0.97658889  0.63179876     0.14700
C3874       C  0.99574214  0.89825891  0.63184598    -0.24200
H3875       H  0.16821894  0.85998648  0.61988657     0.04900
H3876       H  0.20605787  0.91519879  0.62567900     0.08200
H3877       H  0.19106204  0.92023594  0.61541583     0.08200
H3878       H  0.97906633  0.87294092  0.63700775     0.08100
H3879       H  0.96820200  0.88566550  0.62693433     0.08100
H3880       H  0.00409722  0.93651642  0.63367189     0.04900
C3881       C  0.59006512  0.46096281  0.61970986    -0.20900
C3882       C  0.63068392  0.45461778  0.61752792    -0.07500
C3883       C  0.62134315  0.40657671  0.61508795     0.13400
C3884       C  0.57179743  0.36584178  0.61520379    -0.20900
C3885       C  0.53119150  0.37163192  0.61772790    -0.07500
C3886       C  0.54055034  0.42035133  0.61984875     0.13400
C3887       C  0.49899263  0.43043561  0.62220851    -0.24300
H3888       H  0.59736403  0.49803345  0.62149016     0.14700
H3889       H  0.56508253  0.32874769  0.61357460     0.14700
C3890       C  0.66351633  0.39735661  0.61275511    -0.24200
H3891       H  0.51308015  0.47134981  0.62301831     0.04900
H3892       H  0.48215322  0.41167341  0.62791898     0.08200
H3893       H  0.46972020  0.41656793  0.61754017     0.08200
H3894       H  0.69100470  0.40838646  0.61766428     0.08100
H3895       H  0.68276184  0.41960552  0.60738828     0.08100
H3896       H  0.64955695  0.35702033  0.61138715     0.04900
C3897       C  0.86980513  0.66449828  0.66156570    -0.20900
C3898       C  0.82183467  0.64034087  0.65805918    -0.07500
C3899       C  0.77969002  0.60828770  0.66283417     0.13400
C3900       C  0.78672880  0.60229789  0.67088367    -0.20900
C3901       C  0.83444620  0.62761784  0.67445039    -0.07500
C3902       C  0.87672366  0.65870763  0.66964912     0.13400
C3903       C  0.92943491  0.68535706  0.67291240    -0.24300
H3904       H  0.90242401  0.68812861  0.65794235     0.14700
H3905       H  0.75399219  0.57904483  0.67449984     0.14700
C3906       C  0.72668992  0.58155380  0.65966251    -0.24200
H3907       H  0.95800166  0.70357988  0.66816141     0.04900
H3908       H  0.93708193  0.65787400  0.67599404     0.08200
H3909       H  0.93443235  0.71552694  0.67705829     0.08200
H3910       H  0.72206882  0.55257565  0.65529267     0.08100
H3911       H  0.71808449  0.60923032  0.65688659     0.08100
H3912       H  0.69844588  0.56174368  0.66440483     0.04900
C3913       C  0.87991499  0.58219329  0.58359212    -0.20900
C3914       C  0.91565821  0.60643288  0.58958175    -0.07500
C3915       C  0.96562119  0.61697817  0.58825085     0.13400
C3916       C  0.97806201  0.60246659  0.58104908    -0.20900
C3917       C  0.94187775  0.57705312  0.57513544    -0.07500
C3918       C  0.89217025  0.56755153  0.57642345     0.13400
C3919       C  0.85176210  0.54301710  0.57022221    -0.24300
H3920       H  0.84178430  0.57447411  0.58454292     0.14700
H3921       H  0.01607791  0.60981802  0.58011948     0.14700
C3922       C  0.00552621  0.64146743  0.59450967    -0.24200
H3923       H  0.81666500  0.54257320  0.57197441     0.04900
H3924       H  0.84195548  0.50324850  0.56933818     0.08200
H3925       H  0.86491674  0.56405832  0.56455773     0.08200
H3926       H  0.99283323  0.61904912  0.60005745     0.08100
H3927       H  0.01325979  0.68037535  0.59564814     0.08100
H3928       H  0.04146573  0.64402059  0.59266829     0.04900
C3929       C  0.85279120  0.89533917  0.71622090    -0.20900
C3930       C  0.80812137  0.85650323  0.71289865    -0.07500
C3931       C  0.77312854  0.86864901  0.70961062     0.13400
C3932       C  0.78532653  0.91918065  0.70931878    -0.20900
C3933       C  0.83127321  0.95813160  0.71222130    -0.07500
C3934       C  0.86518073  0.94597406  0.71583866     0.13400
C3935       C  0.91537875  0.98597775  0.71894063    -0.24300
H3936       H  0.87899256  0.88626443  0.71897030     0.14700
H3937       H  0.75854233  0.92841143  0.70677349     0.14700
C3938       C  0.72231022  0.82906561  0.70658854    -0.24200
H3939       H  0.93799168  0.96956238  0.72120344     0.04900
H3940       H  0.91011050  0.00659232  0.72390058     0.08200
H3941       H  0.93697977  0.01262571  0.71409948     0.08200
H3942       H  0.70207756  0.80034388  0.71125430     0.08100
H3943       H  0.72658542  0.81089721  0.70120029     0.08100
H3944       H  0.69849316  0.84550135  0.70495249     0.04900
C3945       C  0.87444372  0.40961599  0.70924479    -0.20900
C3946       C  0.83264557  0.36477078  0.70671293    -0.07500
C3947       C  0.79128250  0.36651456  0.70332604     0.13400
C3948       C  0.79206977  0.41270516  0.70293841    -0.20900
C3949       C  0.83264674  0.45718262  0.70591023    -0.07500
C3950       C  0.87531991  0.45579160  0.70884833     0.13400
C3951       C  0.92227301  0.50248620  0.71156189    -0.24300
H3952       H  0.90654901  0.40839373  0.71163822     0.14700
H3953       H  0.75960637  0.41355138  0.70064057     0.14700
C3954       C  0.74491016  0.31970178  0.70048803    -0.24200
H3955       H  0.95356441  0.49494962  0.71266506     0.04900
H3956       H  0.91502321  0.51611509  0.71720688     0.08200
H3957       H  0.93504322  0.53227884  0.70695714     0.08200
H3958       H  0.72938183  0.29130312  0.70530315     0.08100
H3959       H  0.75420474  0.30376908  0.69530646     0.08100
H3960       H  0.71500441  0.32777140  0.69860941     0.04900
C3961       C  0.12782275  0.18112173  0.70971979    -0.20900
C3962       C  0.12237745  0.13645219  0.71298237    -0.07500
C3963       C  0.07695840  0.10300400  0.71689393     0.13400
C3964       C  0.03788755  0.11436676  0.71715359    -0.20900
C3965       C  0.04226456  0.15768046  0.71345712    -0.07500
C3966       C  0.08875807  0.19219278  0.70985321     0.13400
C3967       C  0.09854801  0.24129716  0.70620233    -0.24300
H3968       H  0.16314917  0.20772272  0.70693873     0.14700
H3969       H  0.00303300  0.08824758  0.72007311     0.14700
C3970       C  0.06823469  0.05416801  0.72044165    -0.24200
H3971       H  0.13834865  0.26505153  0.70431538     0.04900
H3972       H  0.09042339  0.26330829  0.71057766     0.08200
H3973       H  0.07513097  0.23399674  0.70084248     0.08200
H3974       H  0.09515047  0.06168590  0.72532462     0.08100
H3975       H  0.07287135  0.03131551  0.71578311     0.08100
H3976       H  0.02977736  0.03166106  0.72293630     0.04900
C3977       C  0.56421030  0.16444762  0.71288809    -0.20900
C3978       C  0.52904992  0.13783813  0.70695802    -0.07500
C3979       C  0.54388679  0.11985480  0.70034109     0.13400
C3980       C  0.59309057  0.12747272  0.70000084    -0.20900
C3981       C  0.62764510  0.15296475  0.70607028    -0.07500
C3982       C  0.61333866  0.17274591  0.71248902     0.13400
C3983       C  0.65010859  0.20344318  0.71889683    -0.24300
H3984       H  0.55329639  0.17946343  0.71783181     0.14700
H3985       H  0.60405385  0.11194681  0.69513855     0.14700
C3986       C  0.50752861  0.09077335  0.69381568    -0.24200
H3987       H  0.63340654  0.21834047  0.72319995     0.04900
H3988       H  0.68366054  0.23603091  0.71622940     0.08200
H3989       H  0.66195218  0.18003532  0.72223634     0.08200
H3990       H  0.49649413  0.11536564  0.69063991     0.08100
H3991       H  0.47356008  0.05779036  0.69632785     0.08100
H3992       H  0.52442022  0.07669147  0.68940585     0.04900
C3993       C  0.98527094  0.28331496  0.74408800    -0.20900
C3994       C  0.95197820  0.23160621  0.74278580    -0.07500
C3995       C  0.94815666  0.19691539  0.74868713     0.13400
C3996       C  0.97797195  0.21455641  0.75552499    -0.20900
C3997       C  0.01250695  0.26603512  0.75675173    -0.07500
C3998       C  0.01571775  0.30098388  0.75091995     0.13400
C3999       C  0.05215029  0.35671973  0.75165421    -0.24300
H4000       H  0.98855813  0.31012680  0.73960656     0.14700
H4001       H  0.97418731  0.18741539  0.75998069     0.14700
C4002       C  0.91196439  0.14109636  0.74798422    -0.24200
H4003       H  0.05136055  0.37785527  0.74636755     0.04900
H4004       H  0.09102785  0.36348938  0.75228364     0.08200
H4005       H  0.04226610  0.37214047  0.75685461     0.08200
H4006       H  0.92328805  0.12521080  0.74302590     0.08100
H4007       H  0.87331397  0.13430500  0.74704361     0.08100
H4008       H  0.91134993  0.12032364  0.75340916     0.04900
C4009       C  0.55892758  0.09968897  0.62080590    -0.20900
C4010       C  0.60516952  0.13958679  0.61821210    -0.07500
C4011       C  0.60795379  0.18506499  0.61561196     0.13400
C4012       C  0.56472289  0.18961195  0.61593716    -0.20900
C4013       C  0.51914570  0.15044999  0.61887538    -0.07500
C4014       C  0.51590156  0.10438673  0.62117116     0.13400
C4015       C  0.46713985  0.05953224  0.62388011    -0.24300
H4016       H  0.55656397  0.06465779  0.62265490     0.14700
H4017       H  0.56696539  0.22471721  0.61416436     0.14700
C4018       C  0.65653825  0.23000703  0.61286152    -0.24200
H4019       H  0.47086335  0.02558354  0.62473921     0.04900
H4020       H  0.43746625  0.05024747  0.61938431     0.08200
H4021       H  0.45530353  0.06763779  0.62963306     0.08200
H4022       H  0.66976799  0.22066477  0.60734721     0.08100
H4023       H  0.68553244  0.24145191  0.61754089     0.08100
H4024       H  0.65195745  0.26302772  0.61154513     0.04900
C4025       C  0.02598425  0.11152697  0.62795008    -0.20900
C4026       C  0.02292102  0.15200244  0.62468815    -0.07500
C4027       C  0.06675088  0.19284583  0.62127662     0.13400
C4028       C  0.11128002  0.19094086  0.62094119    -0.20900
C4029       C  0.11380736  0.14958982  0.62387611    -0.07500
C4030       C  0.07062191  0.10942939  0.62751522     0.13400
C4031       C  0.07022902  0.06306478  0.63057784    -0.24300
H4032       H  0.99268468  0.08032779  0.63054974     0.14700
H4033       H  0.14456738  0.22209699  0.61830620     0.14700
C4034       C  0.06769685  0.23913583  0.61800747    -0.24200
H4035       H  0.03227912  0.03400173  0.63264575     0.04900
H4036       H  0.09595289  0.07305792  0.63567782     0.08200
H4037       H  0.08194776  0.04619030  0.62580861     0.08200
H4038       H  0.05275753  0.25480672  0.62247755     0.08100
H4039       H  0.04542075  0.22963380  0.61248640     0.08100
H4040       H  0.10643425  0.26923146  0.61647218     0.04900
C4041       C  0.82614085  0.36402331  0.61159529    -0.20900
C4042       C  0.80504449  0.33383675  0.61834355    -0.07500
C4043       C  0.79060323  0.35311463  0.62481326     0.13400
C4044       C  0.80216524  0.40345214  0.62470334    -0.20900
C4045       C  0.82509316  0.43429986  0.61811669    -0.07500
C4046       C  0.83559942  0.41397563  0.61135728     0.13400
C4047       C  0.85848514  0.44542507  0.60404072    -0.24300
H4048       H  0.83675044  0.34905734  0.60661165     0.14700
H4049       H  0.79197248  0.41844032  0.62974049     0.14700
C4050       C  0.76145242  0.32130232  0.63181106    -0.24200
H4051       H  0.86636416  0.42437762  0.59944572     0.04900
H4052       H  0.89443678  0.47984001  0.60555831     0.08200
H4053       H  0.83223277  0.45654836  0.60146540     0.08200
H4054       H  0.74930566  0.28088550  0.63105002     0.08100
H4055       H  0.72670750  0.32352778  0.63260229     0.08100
H4056       H  0.78460559  0.33567636  0.63724051     0.04900
C4057       C  0.76707591  0.88339063  0.62537421    -0.20900
C4058       C  0.81189310  0.92975072  0.62573590    -0.07500
C4059       C  0.85728520  0.93054738  0.62757118     0.13400
C4060       C  0.85707850  0.88485501  0.62855627    -0.20900
C4061       C  0.81286917  0.83832681  0.62767078    -0.07500
C4062       C  0.76685616  0.83769481  0.62638391     0.13400
C4063       C  0.71725712  0.78903882  0.62615536    -0.24300
H4064       H  0.73213047  0.88296085  0.62423652     0.14700
H4065       H  0.89214323  0.88547267  0.62957005     0.14700
C4066       C  0.90659668  0.97934736  0.62806653    -0.24200
H4067       H  0.68501202  0.79589072  0.62595254     0.04900
H4068       H  0.71301826  0.76639264  0.63153181     0.08200
H4069       H  0.71502747  0.76722821  0.62080874     0.08200
H4070       H  0.90563845  0.00236202  0.63304802     0.08100
H4071       H  0.91380429  0.00074822  0.62245292     0.08100
H4072       H  0.93859259  0.97280496  0.62909544     0.04900
C4073       C  0.79691275  0.10149114  0.66054544    -0.20900
C4074       C  0.82505397  0.15013533  0.65724506    -0.07500
C4075       C  0.83983860  0.19232786  0.66225192     0.13400
C4076       C  0.82582528  0.18473503  0.67027118    -0.20900
C4077       C  0.79855480  0.13625030  0.67361433    -0.07500
C4078       C  0.78399642  0.09394341  0.66863753     0.13400
C4079       C  0.75432658  0.04071436  0.67173422    -0.24300
H4080       H  0.78481184  0.06890906  0.65675748     0.14700
H4081       H  0.83841615  0.21738492  0.67405539     0.14700
C4082       C  0.87252856  0.24566394  0.65935739    -0.24200
H4083       H  0.74288156  0.01255003  0.66690115     0.04900
H4084       H  0.71969527  0.03505426  0.67473741     0.08200
H4085       H  0.77738721  0.03301503  0.67592871     0.08200
H4086       H  0.85146373  0.25558997  0.65511541     0.08100
H4087       H  0.90696249  0.24968992  0.65650949     0.08100
H4088       H  0.88455372  0.27338368  0.66426460     0.04900
C4089       C  0.69100778  0.02841281  0.58455105    -0.20900
C4090       C  0.67880274  0.05253776  0.59049686    -0.07500
C4091       C  0.63726758  0.06004535  0.58937762     0.13400
C4092       C  0.61060122  0.04518215  0.58223828    -0.20900
C4093       C  0.62391525  0.02277181  0.57618106    -0.07500
C4094       C  0.66424290  0.01359206  0.57739162     0.13400
C4095       C  0.68076329  0.99039335  0.57104622    -0.24300
H4096       H  0.72266291  0.02252207  0.58541602     0.14700
H4097       H  0.57922475  0.05149452  0.58134142     0.14700
C4098       C  0.61994986  0.08268229  0.59571864    -0.24200
H4099       H  0.71465666  0.98868829  0.57283734     0.04900
H4100       H  0.69001351  0.01316802  0.56554217     0.08200
H4101       H  0.65036963  0.95125757  0.56984541     0.08200
H4102       H  0.64857332  0.12283110  0.59667235     0.08100
H4103       H  0.61313899  0.06131480  0.60132829     0.08100
H4104       H  0.58439087  0.08149919  0.59406567     0.04900
loop_ 
_geom_bond_atom_site_label_1 
_geom_bond_atom_site_label_2 
_geom_bond_distance 
_geom_bond_site_symmetry_2 
_ccdc_geom_bond_type 
Zr1           O2   2.439       .  S
Zr1           O3   2.402       .  S
Zr1           O4   2.424       .  S
Zr1           O7   2.430       .  S
Zr1           O9   2.383       .  S
Zr1          O10   2.387       .  S
Zr1          O11   2.396       .  S
Zr1          O12   2.391       .  S
O2           H58   0.991       .  S
O2           H66   0.990       .  S
O3           C23   1.277       .  A
O4           C25   1.283       .  A
O5          Zr15   2.430       .  S
O5           C24   1.283       .  A
O6          Zr14   2.443       .  S
O6           C25   1.287       .  A
O7           C24   1.284       .  A
O8          Zr16   2.443       .  S
O8           C23   1.287       .  A
O9          Zr14   2.391       .  S
O9          Zr16   2.358       .  S
O10         Zr15   2.390       .  S
O10         Zr16   2.380       .  S
O10          H45   0.966       .  S
O11         Zr14   2.404       .  S
O11         Zr31   2.387       .  S
O11          H48   0.966       .  S
O12         Zr15   2.395       .  S
O12         Zr31   2.381       .  S
Zr13         O38   2.443       .  S
Zr13         O32   2.467       .  S
Zr13         O40   2.466       .  S
Zr13         O28   2.418       .  S
Zr13         O19   2.386       .  S
Zr13         O20   2.427       .  S
Zr13         O21   2.383       .  S
Zr13         O22   2.385       .  S
Zr14         O33   2.434       .  S
Zr14         O26   2.436   1_545  S
Zr14         O27   2.456   1_545  S
Zr14         O20   2.394       .  S
Zr14         O21   2.392       .  S
Zr15         O17   2.436       .  S
Zr15         O39   2.436       .  S
Zr15         O41   2.450       .  S
Zr15         O19   2.369       .  S
Zr15         O22   2.394       .  S
Zr16         O42   2.435       .  S
Zr16         O43   2.435       .  S
Zr16         O18   2.436       .  S
Zr16         O19   2.381       .  S
Zr16         O20   2.416       .  S
O17          H54   0.990       .  S
O18          H49   0.990       .  S
O18          H63   0.990       .  S
O20          H46   0.966       .  S
O21         Zr31   2.386       .  S
O22         Zr31   2.402       .  S
O22          H47   0.966       .  S
C23        C4010   1.481       .  S
C24        C4042   1.476       .  S
C25        C4090   1.484       .  S
O26          H62   0.990       .  S
O27          C29   1.289       .  A
O28          C29   1.279   1_545  A
C29        C4058   1.482       .  S
O30         Zr31   2.442       .  S
O30          H59   0.990       .  S
Zr31         O34   2.439       .  S
Zr31         O35   2.440       .  S
Zr31         O36   2.382       .  S
O32          C37   1.289       .  A
O33          H50   0.990       .  S
O33          H65   0.990   1_545  S
O34          H51   0.990       .  S
O35          H55   0.989       .  S
O35          H64   0.989       .  S
O36          C37   1.273       .  A
C37        C4026   1.484   1_655  S
O38          H57   0.990       .  S
O38          H61   0.990       .  S
O39          H53   0.990       .  S
O39          H60   0.989       .  S
O40          C44   1.289       .  A
O41          C44   1.286       .  A
O42          H52   0.990       .  S
O43          H56   0.990       .  S
C44        C4074   1.497       .  S
Zr67         O68   2.442       .  S
Zr67         O69   2.467       .  S
Zr67         O70   2.463       .  S
Zr67         O73   2.408       .  S
Zr67         O75   2.374       .  S
Zr67         O76   2.389       .  S
Zr67         O77   2.408       .  S
Zr67         O78   2.423       .  S
O68         H124   0.990       .  S
O68         H132   0.990       .  S
O69          C89   1.288       .  A
O70          C91   1.289       .  A
O71         Zr81   2.450       .  S
O71          C90   1.289       .  A
O72         Zr80   2.434       .  S
O72          C91   1.283       .  A
O73          C90   1.278       .  A
O74         Zr82   2.395       .  S
O74          C89   1.276       .  A
O75         Zr80   2.398       .  S
O75         Zr82   2.395       .  S
O76         Zr81   2.395       .  S
O76         Zr82   2.373       .  S
O76         H111   0.966       .  S
O77         Zr80   2.395       .  S
O77         Zr97   2.382       .  S
O77         H114   0.963       .  S
O78         Zr81   2.396       .  S
O78         Zr97   2.403       .  S
Zr79        O104   2.441       .  S
Zr79         O98   2.422       .  S
Zr79        O106   2.442       .  S
Zr79         O94   2.442       .  S
Zr79         O85   2.400       .  S
Zr79         O86   2.399       .  S
Zr79         O87   2.381       .  S
Zr79         O88   2.387       .  S
Zr80         O99   2.437       .  S
Zr80         O92   2.436       .  S
Zr80         O93   2.410       .  S
Zr80         O86   2.399       .  S
Zr80         O87   2.389       .  S
Zr81         O83   2.435       .  S
Zr81        O105   2.436       .  S
Zr81        O107   2.465       .  S
Zr81         O85   2.399       .  S
Zr81         O88   2.389       .  S
Zr82        O108   2.435       .  S
Zr82        O109   2.437       .  S
Zr82         O84   2.438       .  S
Zr82         O85   2.396       .  S
Zr82         O86   2.376       .  S
O83         H120   0.990       .  S
O84         H115   0.990       .  S
O84         H129   0.990       .  S
O86         H112   0.965       .  S
O87         Zr97   2.372       .  S
O88         Zr97   2.359       .  S
O88         H113   0.965       .  S
C89        C3981   1.477       .  S
C90        C3946   1.482       .  S
C91        C4077   1.495       .  S
O92         H128   0.990   1_545  S
O93          C95   1.282       .  A
O94          C95   1.286       .  A
C95        C3933   1.477   1_545  S
O96         Zr97   2.439       .  S
O96         H125   0.990   1_655  S
Zr97        O100   2.439       .  S
Zr97        O101   2.440   1_655  S
Zr97        O102   2.437       .  S
O98         C103   1.283       .  A
O99         H116   0.990       .  S
O99         H131   0.990       .  S
O100        H117   0.990       .  S
O101        H121   0.990       .  S
O101        H130   0.990   1_455  S
O102        C103   1.284       .  A
C103       C3965   1.494   1_655  S
O104        H123   0.990       .  S
O104        H127   0.990       .  S
O105        H119   0.990       .  S
O105        H126   0.990       .  S
O106        C110   1.287       .  A
O107        C110   1.292       .  A
O108        H118   0.990       .  S
O109        H122   0.990       .  S
C110       C3994   1.501       .  S
Zr133       O134   2.439       .  S
Zr133       O135   2.416       .  S
Zr133       O136   2.444       .  S
Zr133       O139   2.437       .  S
Zr133       O141   2.385       .  S
Zr133       O142   2.389       .  S
Zr133       O143   2.401       .  S
Zr133       O144   2.395       .  S
O134        H190   0.990       .  S
O134        H198   0.990       .  S
O135        C155   1.280       .  A
O136        C157   1.287       .  A
O137       Zr147   2.424       .  S
O137        C156   1.284       .  A
O138       Zr146   2.449       .  S
O138        C157   1.288       .  A
O139        C156   1.285       .  A
O140       Zr148   2.449       .  S
O140        C155   1.287       .  A
O141       Zr146   2.392       .  S
O141       Zr148   2.364       .  S
O142       Zr147   2.379       .  S
O142       Zr148   2.374       .  S
O142        H177   0.965       .  S
O143       Zr146   2.400       .  S
O143       Zr163   2.395       .  S
O143        H180   0.966       .  S
O144       Zr147   2.392       .  S
O144       Zr163   2.378       .  S
Zr145       O170   2.446       .  S
Zr145       O164   2.486       .  S
Zr145       O172   2.454       .  S
Zr145       O160   2.433       .  S
Zr145       O152   2.428       .  S
Zr145       O153   2.383       .  S
Zr145       O154   2.378       .  S
Zr145       O151   2.306       .  S
Zr146       O165   2.436       .  S
Zr146       O158   2.436   1_655  S
Zr146       O159   2.440       .  S
Zr146       O152   2.404       .  S
Zr146       O153   2.400       .  S
Zr147       O149   2.438       .  S
Zr147       O171   2.443       .  S
Zr147       O173   2.429       .  S
Zr147       O154   2.388       .  S
Zr147       O151   2.282       .  S
Zr148       O174   2.432       .  S
Zr148       O175   2.435       .  S
Zr148       O150   2.446       .  S
Zr148       O152   2.413       .  S
Zr148       O151   2.309       .  S
O149        H186   0.990       .  S
O150        H181   0.990       .  S
O150        H195   0.990       .  S
O152        H178   0.965       .  S
O153       Zr163   2.384       .  S
O154       Zr163   2.403       .  S
O154        H179   0.965       .  S
C155       C4045   1.474       .  S
C156       C3882   1.481       .  S
C157       C3914   1.496       .  S
O158        H194   0.990       .  S
O159        C161   1.287       .  A
O160        C161   1.282       .  A
C161       C3866   1.485   1_655  S
O162       Zr163   2.442       .  S
O162        H191   0.990       .  S
Zr163       O166   2.439       .  S
Zr163       O167   2.439       .  S
Zr163       O168   2.388       .  S
O164        C169   1.292       .  A
O165        H182   0.990       .  S
O165        H197   0.990       .  S
O166        H183   0.990       .  S
O167        H187   0.989       .  S
O167        H196   0.990       .  S
O168        C169   1.274       .  A
C169       C4061   1.487       .  S
O170        H189   0.990       .  S
O170        H193   0.990       .  S
O171        H185   0.990       .  S
O171        H192   0.990       .  S
O172        C176   1.288       .  A
O173        C176   1.282       .  A
O174        H184   0.990       .  S
O175        H188   0.990       .  S
C176       C3898   1.496       .  S
Zr199       O200   2.442       .  S
Zr199       O201   2.462       .  S
Zr199       O202   2.454       .  S
Zr199       O205   2.402       .  S
Zr199       O207   2.373       .  S
Zr199       O208   2.387       .  S
Zr199       O209   2.404       .  S
Zr199       O210   2.420       .  S
O200        H256   0.990       .  S
O200        H264   0.990       .  S
O201        C221   1.290       .  A
O202        C223   1.288       .  A
O203       Zr213   2.455       .  S
O203        C222   1.290       .  A
O204       Zr212   2.435       .  S
O204        C223   1.283       .  A
O205        C222   1.277       .  A
O206       Zr214   2.389       .  S
O206        C221   1.274       .  A
O207       Zr212   2.393       .  S
O207       Zr214   2.395       .  S
O208       Zr213   2.396       .  S
O208       Zr214   2.375       .  S
O208        H243   0.966       .  S
O209       Zr212   2.391       .  S
O209       Zr229   2.373       .  S
O209        H246   0.963       .  S
O210       Zr213   2.390       .  S
O210       Zr229   2.405       .  S
Zr211       O236   2.444       .  S
Zr211       O230   2.405       .  S
Zr211       O238   2.431       .  S
Zr211       O226   2.455       .  S
Zr211       O217   2.398       .  S
Zr211       O218   2.395       .  S
Zr211       O219   2.378       .  S
Zr211       O220   2.390       .  S
Zr212       O231   2.438       .  S
Zr212       O224   2.434       .  S
Zr212       O225   2.405       .  S
Zr212       O218   2.404       .  S
Zr212       O219   2.389       .  S
Zr213       O215   2.435       .  S
Zr213       O237   2.435       .  S
Zr213       O239   2.455       .  S
Zr213       O217   2.399       .  S
Zr213       O220   2.390       .  S
Zr214       O240   2.436       .  S
Zr214       O241   2.437       .  S
Zr214       O216   2.437       .  S
Zr214       O217   2.388       .  S
Zr214       O218   2.371       .  S
O215        H252   0.990       .  S
O216        H247   0.990       .  S
O216        H261   0.990       .  S
O218        H244   0.965       .  S
O219       Zr229   2.370       .  S
O220       Zr229   2.357       .  S
O220        H245   0.965       .  S
C221       C3949   1.488       .  S
C222       C3818   1.478       .  S
C223       C3901   1.495       .  S
O224        H260   0.990       .  S
O225        C227   1.282       .  A
O226        C227   1.289       .  A
C227       C3834   1.486   1_655  S
O228       Zr229   2.438       .  S
O228        H257   0.990       .  S
Zr229       O232   2.438       .  S
Zr229       O233   2.438       .  S
Zr229       O234   2.430       .  S
O230        C235   1.280       .  A
O231        H248   0.990       .  S
O231        H263   0.990       .  S
O232        H249   0.990       .  S
O233        H253   0.990       .  S
O233        H262   0.990       .  S
O234        C235   1.283       .  A
C235       C3930   1.485       .  S
O236        H255   0.990       .  S
O236        H259   0.990       .  S
O237        H251   0.990       .  S
O237        H258   0.990       .  S
O238        C242   1.287       .  A
O239        C242   1.289       .  A
O240        H250   0.990       .  S
O241        H254   0.990       .  S
C242       C3850   1.500       .  S
Zr265       O266   2.439       .  S
Zr265       O267   2.418       .  S
Zr265       O268   2.437       .  S
Zr265       O271   2.439       .  S
Zr265       O273   2.382       .  S
Zr265       O274   2.385       .  S
Zr265       O275   2.403       .  S
Zr265       O276   2.390       .  S
O266        H322   0.990       .  S
O266        H330   0.990       .  S
O267        C287   1.282       .  A
O268        C289   1.286       .  A
O269       Zr279   2.414       .  S
O269        C288   1.281       .  A
O270       Zr278   2.444       .  S
O270        C289   1.287       .  A
O271        C288   1.287       .  A
O272       Zr280   2.439       .  S
O272        C287   1.285       .  A
O273       Zr278   2.391       .  S
O273       Zr280   2.362       .  S
O274       Zr279   2.389       .  S
O274       Zr280   2.379       .  S
O274        H309   0.966       .  S
O275       Zr278   2.399       .  S
O275       Zr295   2.397       .  S
O275        H312   0.966       .  S
O276       Zr279   2.388       .  S
O276       Zr295   2.374       .  S
Zr277       O302   2.440       .  S
Zr277       O296   2.466       .  S
Zr277       O304   2.456       .  S
Zr277       O292   2.419       .  S
Zr277       O283   2.388       .  S
Zr277       O284   2.429       .  S
Zr277       O285   2.383       .  S
Zr277       O286   2.381       .  S
Zr278       O297   2.435       .  S
Zr278       O290   2.434       .  S
Zr278       O291   2.440       .  S
Zr278       O284   2.401       .  S
Zr278       O285   2.393       .  S
Zr279       O281   2.436       .  S
Zr279       O303   2.439       .  S
Zr279       O305   2.431       .  S
Zr279       O283   2.369       .  S
Zr279       O286   2.393       .  S
Zr280       O306   2.434       .  S
Zr280       O307   2.435       .  S
Zr280       O282   2.437       .  S
Zr280       O283   2.380       .  S
Zr280       O284   2.416       .  S
O281        H318   0.990       .  S
O282        H313   0.990       .  S
O282        H327   0.990       .  S
O284        H310   0.966       .  S
O285       Zr295   2.380       .  S
O286       Zr295   2.397       .  S
O286        H311   0.966       .  S
C287       C3885   1.488       .  S
C288       C4013   1.477       .  S
C289       C3802   1.492       .  S
O290        H326   0.990       .  S
O291        C293   1.287       .  A
O292        C293   1.278       .  A
C293       C4029   1.482       .  S
O294       Zr295   2.436       .  S
O294        H323   0.990       .  S
Zr295       O298   2.435       .  S
Zr295       O299   2.438       .  S
Zr295       O300   2.388       .  S
O296        C301   1.289   1_545  A
O297        H314   0.990       .  S
O297        H329   0.990       .  S
O298        H315   0.990   1_545  S
O299        H319   0.990   1_545  S
O299        H328   0.989   1_545  S
O300        C301   1.274   1_545  A
C301       C3869   1.489       .  S
O302        H321   0.990       .  S
O302        H325   0.989       .  S
O303        H317   0.990       .  S
O303        H324   0.990       .  S
O304        C308   1.288       .  A
O305        C308   1.284       .  A
O306        H316   0.990       .  S
O307        H320   0.990       .  S
C308       C3789   1.483       .  S
Zr331       O332   2.442       .  S
Zr331       O333   2.463       .  S
Zr331       O334   2.467       .  S
Zr331       O337   2.424       .  S
Zr331       O339   2.381       .  S
Zr331       O340   2.388       .  S
Zr331       O341   2.409       .  S
Zr331       O342   2.420       .  S
O332        H388   0.990       .  S
O332        H396   0.991       .  S
O333        C353   1.289       .  A
O334        C355   1.288       .  A
O335       Zr345   2.446       .  S
O335        C354   1.288       .  A
O336       Zr344   2.419       .  S
O336        C355   1.282       .  A
O337        C354   1.281       .  A
O338       Zr346   2.390       .  S
O338        C353   1.275       .  A
O339       Zr344   2.397       .  S
O339       Zr346   2.393       .  S
O340       Zr345   2.394       .  S
O340       Zr346   2.372       .  S
O340        H375   0.966       .  S
O341       Zr344   2.401       .  S
O341       Zr361   2.376       .  S
O341        H378   0.963       .  S
O342       Zr345   2.397       .  S
O342       Zr361   2.400       .  S
Zr343       O368   2.444       .  S
Zr343       O362   2.416       .  S
Zr343       O370   2.426       .  S
Zr343       O358   2.446       .  S
Zr343       O349   2.401       .  S
Zr343       O350   2.393       .  S
Zr343       O351   2.378       .  S
Zr343       O352   2.388       .  S
Zr344       O363   2.437       .  S
Zr344       O356   2.434       .  S
Zr344       O357   2.420       .  S
Zr344       O350   2.394       .  S
Zr344       O351   2.386       .  S
Zr345       O347   2.435       .  S
Zr345       O369   2.435       .  S
Zr345       O371   2.452       .  S
Zr345       O349   2.395       .  S
Zr345       O352   2.390       .  S
Zr346       O372   2.436       .  S
Zr346       O373   2.435       .  S
Zr346       O348   2.435       .  S
Zr346       O349   2.391       .  S
Zr346       O350   2.374       .  S
O347        H384   0.990       .  S
O348        H379   0.990       .  S
O348        H393   0.990       .  S
O350        H376   0.965       .  S
O351       Zr361   2.378       .  S
O352       Zr361   2.358       .  S
O352        H377   0.965       .  S
C353       C3821   1.482       .  S
C354       C3978   1.482       .  S
C355       C3786   1.480       .  S
O356        H392   0.990       .  S
O357        C359   1.284       .  A
O358        C359   1.286       .  A
C359       C3962   1.488       .  S
O360       Zr361   2.440       .  S
O360        H389   0.990   1_545  S
Zr361       O364   2.438       .  S
Zr361       O365   2.440   1_545  S
Zr361       O366   2.426   1_545  S
O362        C367   1.282   1_545  A
O363        H380   0.990       .  S
O363        H395   0.990       .  S
O364        H381   0.990       .  S
O365        H385   0.989       .  S
O365        H394   0.990       .  S
O366        C367   1.282       .  A
C367       C3837   1.488       .  S
O368        H387   0.990       .  S
O368        H391   0.990       .  S
O369        H383   0.990       .  S
O369        H390   0.990       .  S
O370        C374   1.286       .  A
O371        C374   1.288       .  A
O372        H382   0.990       .  S
O373        H386   0.990       .  S
C374       C3770   1.498       .  S
Zr397       O398   2.436       .  S
Zr397       O399   2.414       .  S
Zr397       O400   2.431       .  S
Zr397       O403   2.421       .  S
Zr397       O405   2.376       .  S
Zr397       O406   2.384       .  S
Zr397       O407   2.394       .  S
Zr397       O408   2.389       .  S
O398        H454   0.990       .  S
O398        H462   0.990       .  S
O399        C419   1.283       .  A
O400        C421   1.284       .  A
O401       Zr411   2.426       .  S
O401        C420   1.285       .  A
O402       Zr410   2.462       .  S
O402        C421   1.291       .  A
O403        C420   1.283       .  A
O404       Zr412   2.438       .  S
O404        C419   1.285       .  A
O405       Zr410   2.383       .  S
O405       Zr412   2.364       .  S
O406       Zr411   2.389       .  S
O406       Zr412   2.379       .  S
O406        H441   0.966       .  S
O407       Zr410   2.391       .  S
O407       Zr427   2.400       .  S
O407        H444   0.966       .  S
O408       Zr411   2.384       .  S
O408       Zr427   2.379       .  S
Zr409       O434   2.440       .  S
Zr409       O428   2.459       .  S
Zr409       O436   2.465       .  S
Zr409       O424   2.413       .  S
Zr409       O415   2.388       .  S
Zr409       O416   2.428       .  S
Zr409       O417   2.384       .  S
Zr409       O418   2.379       .  S
Zr410       O429   2.437       .  S
Zr410       O422   2.433       .  S
Zr410       O423   2.437       .  S
Zr410       O416   2.406       .  S
Zr410       O417   2.399       .  S
Zr411       O413   2.436       .  S
Zr411       O435   2.439       .  S
Zr411       O437   2.438       .  S
Zr411       O415   2.375       .  S
Zr411       O418   2.393       .  S
Zr412       O438   2.435       .  S
Zr412       O439   2.435       .  S
Zr412       O414   2.436       .  S
Zr412       O415   2.383       .  S
Zr412       O416   2.407       .  S
O413        H450   0.990       .  S
O414        H445   0.990       .  S
O414        H459   0.990       .  S
O416        H442   0.966       .  S
O417       Zr427   2.378       .  S
O418       Zr427   2.398       .  S
O418        H443   0.966       .  S
C419       C3722   1.491       .  S
C420       C3757   1.478       .  S
C421       C3674   1.510       .  S
O422        H458   0.990       .  S
O423        C425   1.285       .  A
O424        C425   1.277       .  A
C425       C3741   1.473       .  S
O426       Zr427   2.441       .  S
O426        H455   0.990       .  S
Zr427       O430   2.437       .  S
Zr427       O431   2.439       .  S
Zr427       O432   2.403       .  S
O428        C433   1.287       .  A
O429        H446   0.990       .  S
O429        H461   0.990       .  S
O430        H447   0.990       .  S
O431        H451   0.990   1_455  S
O431        H460   0.990       .  S
O432        C433   1.278       .  A
C433       C3706   1.481   1_455  S
O434        H453   0.991       .  S
O434        H457   0.990       .  S
O435        H449   0.990       .  S
O435        H456   0.990       .  S
O436        C440   1.290       .  A
O437        C440   1.286       .  A
O438        H448   0.990       .  S
O439        H452   0.990       .  S
C440       C3693   1.494       .  S
Zr463       O464   2.441       .  S
Zr463       O465   2.459       .  S
Zr463       O466   2.470       .  S
Zr463       O469   2.406       .  S
Zr463       O471   2.374       .  S
Zr463       O472   2.391       .  S
Zr463       O473   2.404       .  S
Zr463       O474   2.421       .  S
O464        H520   0.990       .  S
O464        H528   0.990       .  S
O465        C485   1.288       .  A
O466        C487   1.289       .  A
O467       Zr477   2.457       .  S
O467        C486   1.290       .  A
O468       Zr476   2.426       .  S
O468        C487   1.283       .  A
O469        C486   1.278       .  A
O470       Zr478   2.394       .  S
O470        C485   1.276       .  A
O471       Zr476   2.392       .  S
O471       Zr478   2.393       .  S
O472       Zr477   2.395       .  S
O472       Zr478   2.378       .  S
O472        H507   0.966       .  S
O473       Zr476   2.395       .  S
O473       Zr493   2.383       .  S
O473        H510   0.964       .  S
O474       Zr477   2.395       .  S
O474       Zr493   2.402       .  S
Zr475       O500   2.442       .  S
Zr475       O494   2.412       .  S
Zr475       O502   2.442       .  S
Zr475       O490   2.451       .  S
Zr475       O481   2.399       .  S
Zr475       O482   2.397       .  S
Zr475       O483   2.377       .  S
Zr475       O484   2.387       .  S
Zr476       O495   2.437       .  S
Zr476       O488   2.434       .  S
Zr476       O489   2.410       .  S
Zr476       O482   2.398       .  S
Zr476       O483   2.389       .  S
Zr477       O479   2.435       .  S
Zr477       O501   2.437       .  S
Zr477       O503   2.460       .  S
Zr477       O481   2.401       .  S
Zr477       O484   2.391       .  S
Zr478       O504   2.435       .  S
Zr478       O505   2.437       .  S
Zr478       O480   2.438       .  S
Zr478       O481   2.395       .  S
Zr478       O482   2.377       .  S
O479        H516   0.990       .  S
O480        H511   0.990       .  S
O480        H525   0.990       .  S
O482        H508   0.966       .  S
O483       Zr493   2.371       .  S
O484       Zr493   2.362       .  S
O484        H509   0.965       .  S
C485       C3645   1.473       .  S
C486       C3629   1.480       .  S
C487       C3690   1.495       .  S
O488        H524   0.990       .  S
O489        C491   1.281       .  A
O490        C491   1.289       .  A
C491       C3610   1.481       .  S
O492       Zr493   2.439       .  S
O492        H521   0.990   1_455  S
Zr493       O496   2.438       .  S
Zr493       O497   2.438   1_455  S
Zr493       O498   2.438   1_455  S
O494        C499   1.281   1_455  A
O495        H512   0.990       .  S
O495        H527   0.990       .  S
O496        H513   0.990       .  S
O497        H517   0.990       .  S
O497        H526   0.990       .  S
O498        C499   1.285       .  A
C499       C3661   1.482       .  S
O500        H519   0.990       .  S
O500        H523   0.990       .  S
O501        H515   0.990       .  S
O501        H522   0.990       .  S
O502        C506   1.289       .  A
O503        C506   1.290       .  A
O504        H514   0.990       .  S
O505        H518   0.990       .  S
C506       C3997   1.506       .  S
Zr529       O530   2.440       .  S
Zr529       O531   2.410       .  S
Zr529       O532   2.433       .  S
Zr529       O535   2.435       .  S
Zr529       O537   2.386       .  S
Zr529       O538   2.387       .  S
Zr529       O539   2.398       .  S
Zr529       O540   2.392       .  S
O530        H586   0.991       .  S
O530        H594   0.990       .  S
O531        C551   1.278       .  A
O532        C553   1.285       .  A
O533       Zr543   2.426       .  S
O533        C552   1.284       .  A
O534       Zr542   2.440       .  S
O534        C553   1.285       .  A
O535        C552   1.285       .  A
O536       Zr544   2.444       .  S
O536        C551   1.287       .  A
O537       Zr542   2.398       .  S
O537       Zr544   2.365       .  S
O538       Zr543   2.389       .  S
O538       Zr544   2.378       .  S
O538        H573   0.965       .  S
O539       Zr542   2.403       .  S
O539       Zr559   2.391       .  S
O539        H576   0.966       .  S
O540       Zr543   2.388       .  S
O540       Zr559   2.377       .  S
Zr541       O566   2.443       .  S
Zr541       O560   2.470       .  S
Zr541       O568   2.467       .  S
Zr541       O556   2.433       .  S
Zr541       O548   2.422       .  S
Zr541       O549   2.384       .  S
Zr541       O550   2.384       .  S
Zr541       O547   2.294       .  S
Zr542       O561   2.437       .  S
Zr542       O554   2.436   1_565  S
Zr542       O555   2.437       .  S
Zr542       O548   2.407       .  S
Zr542       O549   2.391       .  S
Zr543       O545   2.440       .  S
Zr543       O567   2.442       .  S
Zr543       O569   2.419       .  S
Zr543       O550   2.390       .  S
Zr543       O547   2.285       .  S
Zr544       O570   2.433       .  S
Zr544       O571   2.436       .  S
Zr544       O546   2.445       .  S
Zr544       O548   2.413       .  S
Zr544       O547   2.301       .  S
O545        H582   0.990       .  S
O546        H577   0.990       .  S
O546        H591   0.990   1_565  S
O548        H574   0.966       .  S
O549       Zr559   2.380       .  S
O550       Zr559   2.401       .  S
O550        H575   0.965       .  S
C551       C3562   1.484       .  S
C552       C3725   1.486       .  S
C553       C3549   1.494       .  S
O554        H590   0.990       .  S
O555        C557   1.285   1_565  A
O556        C557   1.281   1_565  A
C557       C3709   1.478       .  S
O558       Zr559   2.435       .  S
O558        H587   0.990       .  S
Zr559       O562   2.437       .  S
Zr559       O563   2.437       .  S
Zr559       O564   2.380       .  S
O560        C565   1.289       .  A
O561        H578   0.990       .  S
O561        H593   0.990       .  S
O562        H579   0.990       .  S
O563        H583   0.990       .  S
O563        H592   0.990       .  S
O564        C565   1.274       .  A
C565       C3578   1.478       .  S
O566        H585   0.990       .  S
O566        H589   0.990       .  S
O567        H581   0.990       .  S
O567        H588   0.990       .  S
O568        C572   1.290       .  A
O569        C572   1.283       .  A
O570        H580   0.990       .  S
O571        H584   0.990       .  S
C572       C3594   1.498       .  S
Zr595       O596   2.439       .  S
Zr595       O597   2.470       .  S
Zr595       O598   2.480       .  S
Zr595       O601   2.423       .  S
Zr595       O603   2.378       .  S
Zr595       O604   2.390       .  S
Zr595       O605   2.411       .  S
Zr595       O606   2.426       .  S
O596        H652   0.990       .  S
O596        H660   0.989       .  S
O597        C617   1.289       .  A
O598        C619   1.291       .  A
O599       Zr609   2.435       .  S
O599        C618   1.286       .  A
O600       Zr608   2.420       .  S
O600        C619   1.282       .  A
O601        C618   1.280       .  A
O602       Zr610   2.386       .  S
O602        C617   1.275       .  A
O603       Zr608   2.396       .  S
O603       Zr610   2.394       .  S
O604       Zr609   2.397       .  S
O604       Zr610   2.374       .  S
O604        H639   0.966       .  S
O605       Zr608   2.399       .  S
O605       Zr625   2.380       .  S
O605        H642   0.963       .  S
O606       Zr609   2.400       .  S
O606       Zr625   2.405       .  S
Zr607       O632   2.439       .  S
Zr607       O626   2.413       .  S
Zr607       O634   2.435       .  S
Zr607       O622   2.445       .  S
Zr607       O613   2.400       .  S
Zr607       O614   2.397       .  S
Zr607       O615   2.380       .  S
Zr607       O616   2.388       .  S
Zr608       O627   2.438       .  S
Zr608       O620   2.434       .  S
Zr608       O621   2.417       .  S
Zr608       O614   2.396       .  S
Zr608       O615   2.385       .  S
Zr609       O611   2.435       .  S
Zr609       O633   2.436       .  S
Zr609       O635   2.455       .  S
Zr609       O613   2.392       .  S
Zr609       O616   2.387       .  S
Zr610       O636   2.436       .  S
Zr610       O637   2.437       .  S
Zr610       O612   2.437       .  S
Zr610       O613   2.393       .  S
Zr610       O614   2.372       .  S
O611        H648   0.990       .  S
O612        H643   0.990       .  S
O612        H657   0.990       .  S
O614        H640   0.965       .  S
O615       Zr625   2.373       .  S
O616       Zr625   2.356       .  S
O616        H641   0.965       .  S
C617       C3517   1.487       .  S
C618       C3642   1.478       .  S
C619       C3597   1.499       .  S
O620        H656   0.990       .  S
O621        C623   1.283       .  A
O622        C623   1.287       .  A
C623       C3658   1.473   1_565  S
O624       Zr625   2.440       .  S
O624        H653   0.991       .  S
Zr625       O628   2.437       .  S
Zr625       O629   2.441       .  S
Zr625       O630   2.435       .  S
O626        C631   1.280       .  A
O627        H644   0.990       .  S
O627        H659   0.990       .  S
O628        H645   0.990       .  S
O629        H649   0.990       .  S
O629        H658   0.990       .  S
O630        C631   1.286       .  A
C631       C3530   1.478       .  S
O632        H651   0.990       .  S
O632        H655   0.990       .  S
O633        H647   0.990       .  S
O633        H654   0.990       .  S
O634        C638   1.286       .  A
O635        C638   1.290       .  A
O636        H646   0.990       .  S
O637        H650   0.990       .  S
C638       C3853   1.497       .  S
Zr661       O662   2.439       .  S
Zr661       O663   2.414       .  S
Zr661       O664   2.445       .  S
Zr661       O667   2.445       .  S
Zr661       O669   2.381       .  S
Zr661       O670   2.384       .  S
Zr661       O671   2.402       .  S
Zr661       O672   2.393       .  S
O662        H718   0.990       .  S
O662        H726   0.990       .  S
O663        C683   1.281       .  A
O664        C685   1.288       .  A
O665       Zr675   2.411       .  S
O665        C684   1.280       .  A
O666       Zr674   2.429       .  S
O666        C685   1.284       .  A
O667        C684   1.289       .  A
O668       Zr676   2.431       .  S
O668        C683   1.283       .  A
O669       Zr674   2.392       .  S
O669       Zr676   2.362       .  S
O670       Zr675   2.388       .  S
O670       Zr676   2.377       .  S
O670        H705   0.965       .  S
O671       Zr674   2.403       .  S
O671       Zr691   2.395       .  S
O671        H708   0.966       .  S
O672       Zr675   2.390       .  S
O672       Zr691   2.374       .  S
Zr673       O698   2.441       .  S
Zr673       O692   2.466       .  S
Zr673       O700   2.468       .  S
Zr673       O688   2.411       .  S
Zr673       O679   2.383       .  S
Zr673       O680   2.427       .  S
Zr673       O681   2.382       .  S
Zr673       O682   2.382       .  S
Zr674       O693   2.436       .  S
Zr674       O686   2.434   1_455  S
Zr674       O687   2.439       .  S
Zr674       O680   2.399       .  S
Zr674       O681   2.389       .  S
Zr675       O677   2.436       .  S
Zr675       O699   2.435       .  S
Zr675       O701   2.425       .  S
Zr675       O679   2.370       .  S
Zr675       O682   2.389       .  S
Zr676       O702   2.435       .  S
Zr676       O703   2.434       .  S
Zr676       O678   2.437       .  S
Zr676       O679   2.382       .  S
Zr676       O680   2.413       .  S
O677        H714   0.990       .  S
O678        H709   0.990       .  S
O678        H723   0.990       .  S
O680        H706   0.966       .  S
O681       Zr691   2.381       .  S
O682       Zr691   2.399       .  S
O682        H707   0.966       .  S
C683       C3754   1.486       .  S
C684       C3565   1.491       .  S
C685       C3482   1.489       .  S
O686        H722   0.990       .  S
O687        C689   1.285       .  A
O688        C689   1.278       .  A
C689       C3581   1.480   1_455  S
O690       Zr691   2.438       .  S
O690        H719   0.990       .  S
Zr691       O694   2.438       .  S
Zr691       O695   2.440       .  S
Zr691       O696   2.379       .  S
O692        C697   1.289       .  A
O693        H710   0.990       .  S
O693        H725   0.990       .  S
O694        H711   0.990       .  S
O695        H715   0.990       .  S
O695        H724   0.990       .  S
O696        C697   1.274       .  A
C697       C3738   1.480   1_565  S
O698        H717   0.991       .  S
O698        H721   0.990       .  S
O699        H713   0.989       .  S
O699        H720   0.989       .  S
O700        C704   1.290       .  A
O701        C704   1.283       .  A
O702        H712   0.990       .  S
O703        H716   0.990       .  S
C704       C3498   1.489       .  S
Zr727       O728   2.442       .  S
Zr727       O729   2.462       .  S
Zr727       O730   2.472       .  S
Zr727       O733   2.423       .  S
Zr727       O735   2.381       .  S
Zr727       O736   2.389       .  S
Zr727       O737   2.412       .  S
Zr727       O738   2.421       .  S
O728        H784   0.990       .  S
O728        H792   0.990       .  S
O729        C749   1.288       .  A
O730        C751   1.289       .  A
O731       Zr741   2.441       .  S
O731        C750   1.286       .  A
O732       Zr740   2.426       .  S
O732        C751   1.282       .  A
O733        C750   1.282       .  A
O734       Zr742   2.391       .  S
O734        C749   1.275       .  A
O735       Zr740   2.396       .  S
O735       Zr742   2.394       .  S
O736       Zr741   2.391       .  S
O736       Zr742   2.380       .  S
O736        H771   0.966       .  S
O737       Zr740   2.398       .  S
O737       Zr757   2.377       .  S
O737        H774   0.963       .  S
O738       Zr741   2.394       .  S
O738       Zr757   2.406       .  S
Zr739       O764   2.438       .  S
Zr739       O758   2.408       .  S
Zr739       O766   2.437       .  S
Zr739       O754   2.447       .  S
Zr739       O745   2.398       .  S
Zr739       O746   2.394       .  S
Zr739       O747   2.377       .  S
Zr739       O748   2.388       .  S
Zr740       O759   2.437       .  S
Zr740       O752   2.435       .  S
Zr740       O753   2.415       .  S
Zr740       O746   2.396       .  S
Zr740       O747   2.386       .  S
Zr741       O743   2.435       .  S
Zr741       O765   2.435       .  S
Zr741       O767   2.446       .  S
Zr741       O745   2.395       .  S
Zr741       O748   2.390       .  S
Zr742       O768   2.437       .  S
Zr742       O769   2.437       .  S
Zr742       O744   2.436       .  S
Zr742       O745   2.392       .  S
Zr742       O746   2.373       .  S
O743        H780   0.990       .  S
O744        H775   0.990       .  S
O744        H789   0.990       .  S
O746        H772   0.965       .  S
O747       Zr757   2.369       .  S
O748       Zr757   2.355       .  S
O748        H773   0.965       .  S
C749       C3626   1.481       .  S
C750       C3514   1.482       .  S
C751       C3501   1.488       .  S
O752        H788   0.990       .  S
O753        C755   1.281       .  A
O754        C755   1.288       .  A
C755       C3533   1.488   1_455  S
O756       Zr757   2.438       .  S
O756        H785   0.990       .  S
Zr757       O760   2.437       .  S
Zr757       O761   2.439   1_565  S
Zr757       O762   2.436       .  S
O758        C763   1.280       .  A
O759        H776   0.990       .  S
O759        H791   0.989       .  S
O760        H777   0.990       .  S
O761        H781   0.990       .  S
O761        H790   0.990   1_545  S
O762        C763   1.286       .  A
C763       C3613   1.473   1_565  S
O764        H783   0.990       .  S
O764        H787   0.990       .  S
O765        H779   0.990       .  S
O765        H786   0.990       .  S
O766        C770   1.287       .  A
O767        C770   1.289       .  A
O768        H778   0.991       .  S
O769        H782   0.989       .  S
C770       C3773   1.495       .  S
Zr793       O794   2.437       .  S
Zr793       O795   2.411       .  S
Zr793       O796   2.435       .  S
Zr793       O799   2.422       .  S
Zr793       O801   2.377       .  S
Zr793       O802   2.387       .  S
Zr793       O803   2.398       .  S
Zr793       O804   2.399       .  S
O794        H850   0.990       .  S
O794        H858   0.990       .  S
O795        C815   1.279       .  A
O796        C817   1.285       .  A
O797       Zr807   2.417       .  S
O797        C816   1.283       .  A
O798       Zr806   2.445       .  S
O798        C817   1.287       .  A
O799        C816   1.282       .  A
O800       Zr808   2.436       .  S
O800        C815   1.286       .  A
O801       Zr806   2.382       .  S
O801       Zr808   2.363       .  S
O802       Zr807   2.388       .  S
O802       Zr808   2.377       .  S
O802        H837   0.966       .  S
O803       Zr806   2.398       .  S
O803       Zr823   2.401       .  S
O803        H840   0.966       .  S
O804       Zr807   2.387       .  S
O804       Zr823   2.386       .  S
Zr805       O830   2.441       .  S
Zr805       O824   2.467       .  S
Zr805       O832   2.463       .  S
Zr805       O820   2.418       .  S
Zr805       O811   2.384       .  S
Zr805       O812   2.427       .  S
Zr805       O813   2.382       .  S
Zr805       O814   2.381       .  S
Zr806       O825   2.437       .  S
Zr806       O818   2.434       .  S
Zr806       O819   2.426       .  S
Zr806       O812   2.403       .  S
Zr806       O813   2.392       .  S
Zr807       O809   2.435       .  S
Zr807       O831   2.439       .  S
Zr807       O833   2.426       .  S
Zr807       O811   2.375       .  S
Zr807       O814   2.390       .  S
Zr808       O834   2.435       .  S
Zr808       O835   2.436       .  S
Zr808       O810   2.437       .  S
Zr808       O811   2.379       .  S
Zr808       O812   2.414       .  S
O809        H846   0.990       .  S
O810        H841   0.990       .  S
O810        H855   0.990       .  S
O812        H838   0.966       .  S
O813       Zr823   2.374       .  S
O814       Zr823   2.398       .  S
O814        H839   0.965       .  S
C815       C3450   1.482       .  S
C816       C3418   1.488       .  S
C817       C3805   1.494       .  S
O818        H854   0.990       .  S
O819        C821   1.283       .  A
O820        C821   1.279       .  A
C821       C3402   1.474       .  S
O822       Zr823   2.440       .  S
O822        H851   0.990       .  S
Zr823       O826   2.438       .  S
Zr823       O827   2.443       .  S
Zr823       O828   2.397       .  S
O824        C829   1.289       .  A
O825        H842   0.990       .  S
O825        H857   0.990       .  S
O826        H843   0.990       .  S
O827        H847   0.990       .  S
O827        H856   0.989       .  S
O828        C829   1.277       .  A
C829       C3437   1.481       .  S
O830        H849   0.991       .  S
O830        H853   0.990       .  S
O831        H845   0.990       .  S
O831        H852   0.990       .  S
O832        C836   1.290       .  A
O833        C836   1.283       .  A
O834        H844   0.990       .  S
O835        H848   0.990       .  S
C836       C3466   1.488       .  S
Zr859       O860   2.441       .  S
Zr859       O861   2.464       .  S
Zr859       O862   2.474       .  S
Zr859       O865   2.420       .  S
Zr859       O867   2.382       .  S
Zr859       O868   2.390       .  S
Zr859       O869   2.408       .  S
Zr859       O870   2.419       .  S
O860        H916   0.990       .  S
O860        H924   0.990       .  S
O861        C881   1.290       .  A
O862        C883   1.290       .  A
O863       Zr873   2.436       .  S
O863        C882   1.286       .  A
O864       Zr872   2.426       .  S
O864        C883   1.284       .  A
O865        C882   1.282       .  A
O866       Zr874   2.387       .  S
O866        C881   1.274       .  A
O867       Zr872   2.392       .  S
O867       Zr874   2.393       .  S
O868       Zr873   2.395       .  S
O868       Zr874   2.373       .  S
O868        H903   0.966       .  S
O869       Zr872   2.401       .  S
O869       Zr889   2.370       .  S
O869        H906   0.963       .  S
O870       Zr873   2.397       .  S
O870       Zr889   2.399       .  S
Zr871       O896   2.437       .  S
Zr871       O890   2.404       .  S
Zr871       O898   2.422       .  S
Zr871       O886   2.432       .  S
Zr871       O877   2.392       .  S
Zr871       O878   2.394       .  S
Zr871       O879   2.378       .  S
Zr871       O880   2.384       .  S
Zr872       O891   2.438       .  S
Zr872       O884   2.434       .  S
Zr872       O885   2.424       .  S
Zr872       O878   2.393       .  S
Zr872       O879   2.385       .  S
Zr873       O875   2.435       .  S
Zr873       O897   2.436       .  S
Zr873       O899   2.457       .  S
Zr873       O877   2.390       .  S
Zr873       O880   2.385       .  S
Zr874       O900   2.436       .  S
Zr874       O901   2.437       .  S
Zr874       O876   2.437       .  S
Zr874       O877   2.392       .  S
Zr874       O878   2.375       .  S
O875        H912   0.990       .  S
O876        H907   0.990       .  S
O876        H921   0.990       .  S
O878        H904   0.966       .  S
O879       Zr889   2.373       .  S
O880       Zr889   2.351       .  S
O880        H905   0.965       .  S
C881       C3357   1.486       .  S
C882       C3322   1.486       .  S
C883       C3469   1.491       .  S
O884        H920   0.990       .  S
O885        C887   1.285       .  A
O886        C887   1.285       .  A
C887       C3338   1.483       .  S
O888       Zr889   2.439       .  S
O888        H917   0.990       .  S
Zr889       O892   2.435       .  S
Zr889       O893   2.440       .  S
Zr889       O894   2.430       .  S
O890        C895   1.281       .  A
O891        H908   0.990       .  S
O891        H923   0.990       .  S
O892        H909   0.990       .  S
O893        H913   0.989       .  S
O893        H922   0.990       .  S
O894        C895   1.284       .  A
C895       C3373   1.476       .  S
O896        H915   0.990       .  S
O896        H919   0.989       .  S
O897        H911   0.990       .  S
O897        H918   0.990       .  S
O898        C902   1.282       .  A
O899        C902   1.291       .  A
O900        H910   0.990       .  S
O901        H914   0.990       .  S
C902       C3389   1.496       .  S
Zr925       O926   2.440       .  S
Zr925       O927   2.427       .  S
Zr925       O928   2.435       .  S
Zr925       O931   2.430       .  S
Zr925       O933   2.383       .  S
Zr925       O934   2.387       .  S
Zr925       O935   2.401   1_545  S
Zr925       O936   2.396       .  S
O926        H982   0.990       .  S
O926        H990   0.990       .  S
O927        C947   1.283       .  A
O928        C949   1.286       .  A
O929       Zr939   2.428       .  S
O929        C948   1.283       .  A
O930       Zr938   2.432       .  S
O930        C949   1.284   1_565  A
O931        C948   1.284       .  A
O932       Zr940   2.441       .  S
O932        C947   1.285       .  A
O933       Zr938   2.396   1_545  S
O933       Zr940   2.361       .  S
O934       Zr939   2.387       .  S
O934       Zr940   2.378       .  S
O934        H969   0.965       .  S
O935       Zr938   2.405       .  S
O935       Zr955   2.392       .  S
O935        H972   0.966       .  S
O936       Zr939   2.389       .  S
O936       Zr955   2.382   1_545  S
Zr937       O962   2.445       .  S
Zr937       O956   2.468       .  S
Zr937       O964   2.443       .  S
Zr937       O952   2.435       .  S
Zr937       O944   2.418       .  S
Zr937       O945   2.379       .  S
Zr937       O946   2.383       .  S
Zr937       O943   2.304       .  S
Zr938       O957   2.438       .  S
Zr938       O950   2.436       .  S
Zr938       O951   2.437       .  S
Zr938       O944   2.401       .  S
Zr938       O945   2.391       .  S
Zr939       O941   2.440       .  S
Zr939       O963   2.441       .  S
Zr939       O965   2.432       .  S
Zr939       O946   2.388   1_545  S
Zr939       O943   2.286   1_545  S
Zr940       O966   2.433       .  S
Zr940       O967   2.434       .  S
Zr940       O942   2.446       .  S
Zr940       O944   2.411   1_545  S
Zr940       O943   2.309   1_545  S
O941        H978   0.990       .  S
O942        H973   0.990       .  S
O942        H987   0.990       .  S
O944        H970   0.965       .  S
O945       Zr955   2.378       .  S
O946       Zr955   2.402       .  S
O946        H971   0.965       .  S
C947       C3306   1.486       .  S
C948       C3453   1.478       .  S
C949       C4093   1.482       .  S
O950        H986   0.990       .  S
O951        C953   1.285       .  A
O952        C953   1.282       .  A
C953       C3434   1.488       .  S
O954       Zr955   2.441       .  S
O954        H983   0.990       .  S
Zr955       O958   2.440       .  S
Zr955       O959   2.439       .  S
Zr955       O960   2.388       .  S
O956        C961   1.289       .  A
O957        H974   0.990       .  S
O957        H989   0.990       .  S
O958        H975   0.990       .  S
O959        H979   0.990       .  S
O959        H988   0.990       .  S
O960        C961   1.275       .  A
C961       C3290   1.480       .  S
O962        H981   0.991       .  S
O962        H985   0.991       .  S
O963        H977   0.991       .  S
O963        H984   0.990       .  S
O964        C968   1.286       .  A
O965        C968   1.283   1_545  A
O966        H976   0.990       .  S
O967        H980   0.990   1_545  S
C968       C3274   1.490       .  S
Zr991       O992   2.442       .  S
Zr991       O993   2.459       .  S
Zr991       O994   2.448       .  S
Zr991       O997   2.411       .  S
Zr991       O999   2.373       .  S
Zr991      O1000   2.384       .  S
Zr991      O1001   2.409   1_545  S
Zr991      O1002   2.420       .  S
O992       H1048   0.990       .  S
O992       H1056   0.990       .  S
O993       C1013   1.288       .  A
O994       C1015   1.286       .  A
O995      Zr1005   2.440       .  S
O995       C1014   1.287       .  A
O996      Zr1004   2.439       .  S
O996       C1015   1.283   1_565  A
O997       C1014   1.279       .  A
O998      Zr1006   2.389       .  S
O998       C1013   1.274       .  A
O999      Zr1004   2.395   1_545  S
O999      Zr1006   2.394       .  S
O1000     Zr1005   2.397       .  S
O1000     Zr1006   2.374       .  S
O1000      H1035   0.966       .  S
O1001     Zr1004   2.397       .  S
O1001     Zr1021   2.378       .  S
O1001      H1038   0.963       .  S
O1002     Zr1005   2.394       .  S
O1002     Zr1021   2.406   1_545  S
Zr1003     O1028   2.442       .  S
Zr1003     O1022   2.418       .  S
Zr1003     O1030   2.424       .  S
Zr1003     O1018   2.440       .  S
Zr1003     O1009   2.400       .  S
Zr1003     O1010   2.395       .  S
Zr1003     O1011   2.380       .  S
Zr1003     O1012   2.384       .  S
Zr1004     O1023   2.438       .  S
Zr1004     O1016   2.435       .  S
Zr1004     O1017   2.421       .  S
Zr1004     O1010   2.402       .  S
Zr1004     O1011   2.394       .  S
Zr1005     O1007   2.436       .  S
Zr1005     O1029   2.436       .  S
Zr1005     O1031   2.449   1_545  S
Zr1005     O1009   2.396   1_545  S
Zr1005     O1012   2.389   1_545  S
Zr1006     O1032   2.436       .  S
Zr1006     O1033   2.436       .  S
Zr1006     O1008   2.436       .  S
Zr1006     O1009   2.393   1_545  S
Zr1006     O1010   2.374   1_545  S
O1007      H1044   0.990       .  S
O1008      H1039   0.990       .  S
O1008      H1053   0.990       .  S
O1010      H1036   0.965       .  S
O1011     Zr1021   2.376       .  S
O1012     Zr1021   2.353       .  S
O1012      H1037   0.965       .  S
C1013      C3242   1.480       .  S
C1014      C3354   1.479       .  S
C1015      C3277   1.491       .  S
O1016      H1052   0.990       .  S
O1017      C1019   1.284       .  A
O1018      C1019   1.286       .  A
C1019      C3370   1.474       .  S
O1020     Zr1021   2.440       .  S
O1020      H1049   0.990       .  S
Zr1021     O1024   2.437       .  S
Zr1021     O1025   2.440       .  S
Zr1021     O1026   2.440       .  S
O1022      C1027   1.282       .  A
O1023      H1040   0.990       .  S
O1023      H1055   0.990       .  S
O1024      H1041   0.990       .  S
O1025      H1045   0.990       .  S
O1025      H1054   0.990       .  S
O1026      C1027   1.285       .  A
C1027      C3229   1.487       .  S
O1028      H1047   0.990       .  S
O1028      H1051   0.990       .  S
O1029      H1043   0.990       .  S
O1029      H1050   0.990       .  S
O1030      C1034   1.283       .  A
O1031      C1034   1.289       .  A
O1032      H1042   0.990       .  S
O1033      H1046   0.990   1_545  S
C1034      C3258   1.494       .  S
Zr1057     O1058   2.439       .  S
Zr1057     O1059   2.419       .  S
Zr1057     O1060   2.437       .  S
Zr1057     O1063   2.425       .  S
Zr1057     O1065   2.380       .  S
Zr1057     O1066   2.385       .  S
Zr1057     O1067   2.399   1_655  S
Zr1057     O1068   2.399       .  S
O1058      H1114   0.990       .  S
O1058      H1122   0.990       .  S
O1059      C1079   1.282       .  A
O1060      C1081   1.285       .  A
O1061     Zr1071   2.432       .  S
O1061      C1080   1.284       .  A
O1062     Zr1070   2.454       .  S
O1062      C1081   1.289   1_455  A
O1063      C1080   1.283       .  A
O1064     Zr1072   2.421       .  S
O1064      C1079   1.281       .  A
O1065     Zr1070   2.388   1_655  S
O1065     Zr1072   2.365       .  S
O1066     Zr1071   2.390       .  S
O1066     Zr1072   2.383       .  S
O1066      H1101   0.966       .  S
O1067     Zr1070   2.404       .  S
O1067     Zr1087   2.398       .  S
O1067      H1104   0.966       .  S
O1068     Zr1071   2.393       .  S
O1068     Zr1087   2.387   1_655  S
Zr1069     O1094   2.442       .  S
Zr1069     O1088   2.450       .  S
Zr1069     O1096   2.460       .  S
Zr1069     O1084   2.423       .  S
Zr1069     O1075   2.374   1_455  S
Zr1069     O1076   2.422       .  S
Zr1069     O1077   2.384       .  S
Zr1069     O1078   2.387       .  S
Zr1070     O1089   2.435       .  S
Zr1070     O1082   2.435       .  S
Zr1070     O1083   2.439       .  S
Zr1070     O1076   2.401       .  S
Zr1070     O1077   2.399       .  S
Zr1071     O1073   2.436       .  S
Zr1071     O1095   2.439       .  S
Zr1071     O1097   2.448       .  S
Zr1071     O1075   2.367       .  S
Zr1071     O1078   2.394   1_655  S
Zr1072     O1098   2.436       .  S
Zr1072     O1099   2.436       .  S
Zr1072     O1074   2.436       .  S
Zr1072     O1075   2.366       .  S
Zr1072     O1076   2.407   1_655  S
O1073      H1110   0.990       .  S
O1074      H1105   0.990       .  S
O1074      H1119   0.990       .  S
O1076      H1102   0.966       .  S
O1077     Zr1087   2.379       .  S
O1078     Zr1087   2.397       .  S
O1078      H1103   0.966       .  S
C1079      C3421   1.481       .  S
C1080      C3309   1.479       .  S
C1081      C3917   1.498       .  S
O1082      H1118   0.990       .  S
O1083      C1085   1.286       .  A
O1084      C1085   1.281       .  A
C1085      C3293   1.478       .  S
O1086     Zr1087   2.439       .  S
O1086      H1115   0.991       .  S
Zr1087     O1090   2.437       .  S
Zr1087     O1091   2.442       .  S
Zr1087     O1092   2.395       .  S
O1088      C1093   1.285       .  A
O1089      H1106   0.990       .  S
O1089      H1121   0.990       .  S
O1090      H1107   0.990       .  S
O1091      H1111   0.990       .  S
O1091      H1120   0.990       .  S
O1092      C1093   1.277       .  A
C1093      C3405   1.475       .  S
O1094      H1113   0.991       .  S
O1094      H1117   0.990       .  S
O1095      H1109   0.990       .  S
O1095      H1116   0.990       .  S
O1096      C1100   1.290       .  A
O1097      C1100   1.287   1_655  A
O1098      H1108   0.990       .  S
O1099      H1112   0.990   1_655  S
C1100      C3210   1.491   1_455  S
Zr1123     O1124   2.444       .  S
Zr1123     O1125   2.466       .  S
Zr1123     O1126   2.461       .  S
Zr1123     O1129   2.407       .  S
Zr1123     O1131   2.380       .  S
Zr1123     O1132   2.388       .  S
Zr1123     O1133   2.410   1_655  S
Zr1123     O1134   2.423       .  S
O1124      H1180   0.990       .  S
O1124      H1188   0.990       .  S
O1125      C1145   1.289       .  A
O1126      C1147   1.288       .  A
O1127     Zr1137   2.443       .  S
O1127      C1146   1.286       .  A
O1128     Zr1136   2.447       .  S
O1128      C1147   1.285   1_455  A
O1129      C1146   1.278       .  A
O1130     Zr1138   2.379       .  S
O1130      C1145   1.275       .  A
O1131     Zr1136   2.395   1_655  S
O1131     Zr1138   2.397       .  S
O1132     Zr1137   2.391       .  S
O1132     Zr1138   2.376       .  S
O1132      H1167   0.966       .  S
O1133     Zr1136   2.398       .  S
O1133     Zr1153   2.371       .  S
O1133      H1170   0.962       .  S
O1134     Zr1137   2.392       .  S
O1134     Zr1153   2.404   1_655  S
Zr1135     O1160   2.444       .  S
Zr1135     O1154   2.415       .  S
Zr1135     O1162   2.438       .  S
Zr1135     O1150   2.438       .  S
Zr1135     O1141   2.396   1_455  S
Zr1135     O1142   2.400       .  S
Zr1135     O1143   2.381       .  S
Zr1135     O1144   2.387       .  S
Zr1136     O1155   2.438       .  S
Zr1136     O1148   2.434       .  S
Zr1136     O1149   2.424       .  S
Zr1136     O1142   2.402       .  S
Zr1136     O1143   2.393       .  S
Zr1137     O1139   2.436       .  S
Zr1137     O1161   2.436       .  S
Zr1137     O1163   2.441       .  S
Zr1137     O1141   2.397       .  S
Zr1137     O1144   2.390   1_655  S
Zr1138     O1164   2.436       .  S
Zr1138     O1165   2.435       .  S
Zr1138     O1140   2.436       .  S
Zr1138     O1141   2.388       .  S
Zr1138     O1142   2.371   1_655  S
O1139      H1176   0.990       .  S
O1140      H1171   0.990       .  S
O1140      H1185   0.990       .  S
O1142      H1168   0.965       .  S
O1143     Zr1153   2.371       .  S
O1144     Zr1153   2.359       .  S
O1144      H1169   0.965       .  S
C1145      C3325   1.484       .  S
C1146      C3245   1.475       .  S
C1147      C3213   1.492       .  S
O1148      H1184   0.990       .  S
O1149      C1151   1.284       .  A
O1150      C1151   1.286       .  A
C1151      C3226   1.476       .  S
O1152     Zr1153   2.438       .  S
O1152      H1181   0.990   1_455  S
Zr1153     O1156   2.437       .  S
Zr1153     O1157   2.441       .  S
Zr1153     O1158   2.431       .  S
O1154      C1159   1.281       .  A
O1155      H1172   0.990       .  S
O1155      H1187   0.990       .  S
O1156      H1173   0.990       .  S
O1157      H1177   0.990       .  S
O1157      H1186   0.990       .  S
O1158      C1159   1.284       .  A
C1159      C3341   1.478       .  S
O1160      H1179   0.990       .  S
O1160      H1183   0.990       .  S
O1161      H1175   0.990       .  S
O1161      H1182   0.990       .  S
O1162      C1166   1.288       .  A
O1163      C1166   1.286   1_655  A
O1164      H1174   0.990       .  S
O1165      H1178   0.990   1_655  S
C1166      C3197   1.493       .  S
Zr1189     O1190   2.439       .  S
Zr1189     O1191   2.418       .  S
Zr1189     O1192   2.439       .  S
Zr1189     O1195   2.440       .  S
Zr1189     O1197   2.381       .  S
Zr1189     O1198   2.384       .  S
Zr1189     O1199   2.401       .  S
Zr1189     O1200   2.391       .  S
O1190      H1246   0.990       .  S
O1190      H1254   0.990       .  S
O1191      C1211   1.280       .  A
O1192      C1213   1.286       .  A
O1193     Zr1203   2.413       .  S
O1193      C1212   1.280       .  A
O1194     Zr1202   2.444       .  S
O1194      C1213   1.287       .  A
O1195      C1212   1.287       .  A
O1196     Zr1204   2.442       .  S
O1196      C1211   1.287       .  A
O1197     Zr1202   2.396       .  S
O1197     Zr1204   2.363       .  S
O1198     Zr1203   2.396       .  S
O1198     Zr1204   2.380       .  S
O1198      H1233   0.966       .  S
O1199     Zr1202   2.402       .  S
O1199     Zr1219   2.390       .  S
O1199      H1236   0.966       .  S
O1200     Zr1203   2.389       .  S
O1200     Zr1219   2.375       .  S
Zr1201     O1226   2.443       .  S
Zr1201     O1220   2.465       .  S
Zr1201     O1228   2.466       .  S
Zr1201     O1216   2.431       .  S
Zr1201     O1207   2.389       .  S
Zr1201     O1208   2.426       .  S
Zr1201     O1209   2.387       .  S
Zr1201     O1210   2.386       .  S
Zr1202     O1221   2.435       .  S
Zr1202     O1214   2.432       .  S
Zr1202     O1215   2.445       .  S
Zr1202     O1208   2.402       .  S
Zr1202     O1209   2.392       .  S
Zr1203     O1205   2.438       .  S
Zr1203     O1227   2.439       .  S
Zr1203     O1229   2.432       .  S
Zr1203     O1207   2.374       .  S
Zr1203     O1210   2.391       .  S
Zr1204     O1230   2.435       .  S
Zr1204     O1231   2.435       .  S
Zr1204     O1206   2.436       .  S
Zr1204     O1207   2.385       .  S
Zr1204     O1208   2.412       .  S
O1205      H1242   0.990       .  S
O1206      H1237   0.990       .  S
O1206      H1251   0.990       .  S
O1208      H1234   0.966       .  S
O1209     Zr1219   2.382       .  S
O1210     Zr1219   2.398       .  S
O1210      H1235   0.966       .  S
C1211      C3130   1.493       .  S
C1212      C3098   1.476   1_455  S
C1213      C3178   1.496       .  S
O1214      H1250   0.990       .  S
O1215      C1217   1.287       .  A
O1216      C1217   1.282       .  A
C1217      C3114   1.487       .  S
O1218     Zr1219   2.439       .  S
O1218      H1247   0.990       .  S
Zr1219     O1222   2.439       .  S
Zr1219     O1223   2.441       .  S
Zr1219     O1224   2.381       .  S
O1220      C1225   1.288       .  A
O1221      H1238   0.990       .  S
O1221      H1253   0.990       .  S
O1222      H1239   0.990       .  S
O1223      H1243   0.990       .  S
O1223      H1252   0.990       .  S
O1224      C1225   1.275       .  A
C1225      C3146   1.482       .  S
O1226      H1245   0.991       .  S
O1226      H1249   0.990       .  S
O1227      H1241   0.990       .  S
O1227      H1248   0.990       .  S
O1228      C1232   1.290       .  A
O1229      C1232   1.284       .  A
O1230      H1240   0.990       .  S
O1231      H1244   0.990       .  S
C1232      C3162   1.493       .  S
Zr1255     O1256   2.443       .  S
Zr1255     O1257   2.467       .  S
Zr1255     O1258   2.467       .  S
Zr1255     O1261   2.408       .  S
Zr1255     O1263   2.375       .  S
Zr1255     O1264   2.391       .  S
Zr1255     O1265   2.406       .  S
Zr1255     O1266   2.423       .  S
O1256      H1312   0.990       .  S
O1256      H1320   0.990       .  S
O1257      C1277   1.289       .  A
O1258      C1279   1.290       .  A
O1259     Zr1269   2.453   1_655  S
O1259      C1278   1.289       .  A
O1260     Zr1268   2.431       .  S
O1260      C1279   1.283       .  A
O1261      C1278   1.280   1_455  A
O1262     Zr1270   2.384       .  S
O1262      C1277   1.274       .  A
O1263     Zr1268   2.399       .  S
O1263     Zr1270   2.393       .  S
O1264     Zr1269   2.392       .  S
O1264     Zr1270   2.375       .  S
O1264      H1299   0.966       .  S
O1265     Zr1268   2.398       .  S
O1265     Zr1285   2.376       .  S
O1265      H1302   0.963       .  S
O1266     Zr1269   2.392       .  S
O1266     Zr1285   2.404       .  S
Zr1267     O1292   2.443       .  S
Zr1267     O1286   2.419       .  S
Zr1267     O1294   2.423       .  S
Zr1267     O1282   2.441       .  S
Zr1267     O1273   2.402       .  S
Zr1267     O1274   2.395       .  S
Zr1267     O1275   2.375       .  S
Zr1267     O1276   2.388       .  S
Zr1268     O1287   2.437       .  S
Zr1268     O1280   2.433       .  S
Zr1268     O1281   2.421       .  S
Zr1268     O1274   2.400       .  S
Zr1268     O1275   2.385       .  S
Zr1269     O1271   2.434   1_455  S
Zr1269     O1293   2.437       .  S
Zr1269     O1295   2.456       .  S
Zr1269     O1273   2.401       .  S
Zr1269     O1276   2.387       .  S
Zr1270     O1296   2.435       .  S
Zr1270     O1297   2.437       .  S
Zr1270     O1272   2.438       .  S
Zr1270     O1273   2.395       .  S
Zr1270     O1274   2.374       .  S
O1271      H1308   0.990       .  S
O1272      H1303   0.990       .  S
O1272      H1317   0.990       .  S
O1274      H1300   0.965       .  S
O1275     Zr1285   2.373       .  S
O1276     Zr1285   2.359       .  S
O1276      H1301   0.965       .  S
C1277      C3066   1.474       .  S
C1278      C3037   1.487       .  S
C1279      C3165   1.493       .  S
O1280      H1316   0.990       .  S
O1281      C1283   1.285       .  A
O1282      C1283   1.286       .  A
C1283      C3050   1.481       .  S
O1284     Zr1285   2.439       .  S
O1284      H1313   0.990       .  S
Zr1285     O1288   2.437       .  S
Zr1285     O1289   2.441       .  S
Zr1285     O1290   2.431       .  S
O1286      C1291   1.281       .  A
O1287      H1304   0.990       .  S
O1287      H1319   0.990       .  S
O1288      H1305   0.990       .  S
O1289      H1309   0.990       .  S
O1289      H1318   0.990       .  S
O1290      C1291   1.284       .  A
C1291      C3082   1.471       .  S
O1292      H1311   0.990       .  S
O1292      H1315   0.990       .  S
O1293      H1307   0.990       .  S
O1293      H1314   0.990       .  S
O1294      C1298   1.283       .  A
O1295      C1298   1.290       .  A
O1296      H1306   0.990       .  S
O1297      H1310   0.989       .  S
C1298      C3194   1.497       .  S
Zr1321     O1322   2.440       .  S
Zr1321     O1323   2.413       .  S
Zr1321     O1324   2.455       .  S
Zr1321     O1327   2.441       .  S
Zr1321     O1329   2.378       .  S
Zr1321     O1330   2.391       .  S
Zr1321     O1331   2.396       .  S
Zr1321     O1332   2.395       .  S
O1322      H1378   0.990       .  S
O1322      H1386   0.990       .  S
O1323      C1343   1.280   1_455  A
O1324      C1345   1.289       .  A
O1325     Zr1335   2.422       .  S
O1325      C1344   1.282       .  A
O1326     Zr1334   2.435       .  S
O1326      C1345   1.284       .  A
O1327      C1344   1.288       .  A
O1328     Zr1336   2.430   1_655  S
O1328      C1343   1.284       .  A
O1329     Zr1334   2.387       .  S
O1329     Zr1336   2.364       .  S
O1330     Zr1335   2.396       .  S
O1330     Zr1336   2.382       .  S
O1330      H1365   0.966       .  S
O1331     Zr1334   2.399       .  S
O1331     Zr1351   2.393       .  S
O1331      H1368   0.966       .  S
O1332     Zr1335   2.396       .  S
O1332     Zr1351   2.381       .  S
Zr1333     O1358   2.441       .  S
Zr1333     O1352   2.472       .  S
Zr1333     O1360   2.466       .  S
Zr1333     O1348   2.418       .  S
Zr1333     O1339   2.385       .  S
Zr1333     O1340   2.428       .  S
Zr1333     O1341   2.382       .  S
Zr1333     O1342   2.382       .  S
Zr1334     O1353   2.435       .  S
Zr1334     O1346   2.434       .  S
Zr1334     O1347   2.430       .  S
Zr1334     O1340   2.401       .  S
Zr1334     O1341   2.396       .  S
Zr1335     O1337   2.437       .  S
Zr1335     O1359   2.439       .  S
Zr1335     O1361   2.454       .  S
Zr1335     O1339   2.368       .  S
Zr1335     O1342   2.395       .  S
Zr1336     O1362   2.435       .  S
Zr1336     O1363   2.435       .  S
Zr1336     O1338   2.437   1_455  S
Zr1336     O1339   2.378       .  S
Zr1336     O1340   2.410       .  S
O1337      H1374   0.990       .  S
O1338      H1369   0.990       .  S
O1338      H1383   0.990       .  S
O1340      H1366   0.966       .  S
O1341     Zr1351   2.376       .  S
O1342     Zr1351   2.400       .  S
O1342      H1367   0.965       .  S
C1343      C2989   1.478       .  S
C1344      C3133   1.484   1_565  S
C1345      C3018   1.497       .  S
O1346      H1382   0.990       .  S
O1347      C1349   1.284       .  A
O1348      C1349   1.279       .  A
C1349      C3149   1.477       .  S
O1350     Zr1351   2.438       .  S
O1350      H1379   0.990       .  S
Zr1351     O1354   2.437       .  S
Zr1351     O1355   2.439       .  S
Zr1351     O1356   2.387       .  S
O1352      C1357   1.289       .  A
O1353      H1370   0.990       .  S
O1353      H1385   0.990       .  S
O1354      H1371   0.990       .  S
O1355      H1375   0.990       .  S
O1355      H1384   0.990       .  S
O1356      C1357   1.277       .  A
C1357      C2970   1.492       .  S
O1358      H1377   0.991       .  S
O1358      H1381   0.990       .  S
O1359      H1373   0.990       .  S
O1359      H1380   0.990       .  S
O1360      C1364   1.290       .  A
O1361      C1364   1.288       .  A
O1362      H1372   0.990       .  S
O1363      H1376   0.990       .  S
C1364      C3002   1.498       .  S
Zr1387     O1388   2.441       .  S
Zr1387     O1389   2.477       .  S
Zr1387     O1390   2.469       .  S
Zr1387     O1393   2.412       .  S
Zr1387     O1395   2.379       .  S
Zr1387     O1396   2.388       .  S
Zr1387     O1397   2.412       .  S
Zr1387     O1398   2.421       .  S
O1388      H1444   0.990       .  S
O1388      H1452   0.990       .  S
O1389      C1409   1.292       .  A
O1390      C1411   1.289       .  A
O1391     Zr1401   2.445       .  S
O1391      C1410   1.288       .  A
O1392     Zr1400   2.437       .  S
O1392      C1411   1.287       .  A
O1393      C1410   1.280       .  A
O1394     Zr1402   2.392       .  S
O1394      C1409   1.277       .  A
O1395     Zr1400   2.394       .  S
O1395     Zr1402   2.392       .  S
O1396     Zr1401   2.391       .  S
O1396     Zr1402   2.372       .  S
O1396      H1431   0.966       .  S
O1397     Zr1400   2.403       .  S
O1397     Zr1417   2.383       .  S
O1397      H1434   0.963       .  S
O1398     Zr1401   2.393       .  S
O1398     Zr1417   2.406       .  S
Zr1399     O1424   2.440       .  S
Zr1399     O1418   2.423       .  S
Zr1399     O1426   2.432       .  S
Zr1399     O1414   2.437       .  S
Zr1399     O1405   2.399       .  S
Zr1399     O1406   2.399       .  S
Zr1399     O1407   2.380       .  S
Zr1399     O1408   2.387       .  S
Zr1400     O1419   2.438       .  S
Zr1400     O1412   2.433       .  S
Zr1400     O1413   2.433       .  S
Zr1400     O1406   2.395       .  S
Zr1400     O1407   2.387       .  S
Zr1401     O1403   2.434   1_565  S
Zr1401     O1425   2.436       .  S
Zr1401     O1427   2.446       .  S
Zr1401     O1405   2.394       .  S
Zr1401     O1408   2.391       .  S
Zr1402     O1428   2.436       .  S
Zr1402     O1429   2.436       .  S
Zr1402     O1404   2.437       .  S
Zr1402     O1405   2.394       .  S
Zr1402     O1406   2.372       .  S
O1403      H1440   0.990       .  S
O1404      H1435   0.990   1_455  S
O1404      H1449   0.990       .  S
O1406      H1432   0.965       .  S
O1407     Zr1417   2.369       .  S
O1408     Zr1417   2.358       .  S
O1408      H1433   0.965       .  S
C1409      C2938   1.492   1_455  S
C1410      C3069   1.479   1_565  S
C1411      C3005   1.499       .  S
O1412      H1448   0.990       .  S
O1413      C1415   1.286       .  A
O1414      C1415   1.286       .  A
C1415      C3085   1.479       .  S
O1416     Zr1417   2.440       .  S
O1416      H1445   0.990       .  S
Zr1417     O1420   2.436       .  S
Zr1417     O1421   2.442       .  S
Zr1417     O1422   2.442       .  S
O1418      C1423   1.282       .  A
O1419      H1436   0.990       .  S
O1419      H1451   0.990       .  S
O1420      H1437   0.990       .  S
O1421      H1441   0.990       .  S
O1421      H1450   0.990       .  S
O1422      C1423   1.287       .  A
C1423      C2954   1.484       .  S
O1424      H1443   0.990       .  S
O1424      H1447   0.990       .  S
O1425      H1439   0.990       .  S
O1425      H1446   0.990       .  S
O1426      C1430   1.287       .  A
O1427      C1430   1.288       .  A
O1428      H1438   0.990       .  S
O1429      H1442   0.990       .  S
C1430      C3261   1.489       .  S
Zr1453     O1454   2.439       .  S
Zr1453     O1455   2.417       .  S
Zr1453     O1456   2.430       .  S
Zr1453     O1459   2.435       .  S
Zr1453     O1461   2.380       .  S
Zr1453     O1462   2.384       .  S
Zr1453     O1463   2.402       .  S
Zr1453     O1464   2.392       .  S
O1454      H1510   0.990       .  S
O1454      H1518   0.990       .  S
O1455      C1475   1.281   1_565  A
O1456      C1477   1.285       .  A
O1457     Zr1467   2.422       .  S
O1457      C1476   1.282       .  A
O1458     Zr1466   2.443       .  S
O1458      C1477   1.286       .  A
O1459      C1476   1.286       .  A
O1460     Zr1468   2.434   1_545  S
O1460      C1475   1.285       .  A
O1461     Zr1466   2.387       .  S
O1461     Zr1468   2.364       .  S
O1462     Zr1467   2.391       .  S
O1462     Zr1468   2.383       .  S
O1462      H1497   0.966       .  S
O1463     Zr1466   2.396       .  S
O1463     Zr1483   2.398       .  S
O1463      H1500   0.966       .  S
O1464     Zr1467   2.388       .  S
O1464     Zr1483   2.382       .  S
Zr1465     O1490   2.442       .  S
Zr1465     O1484   2.463       .  S
Zr1465     O1492   2.451       .  S
Zr1465     O1480   2.425       .  S
Zr1465     O1471   2.386       .  S
Zr1465     O1472   2.428       .  S
Zr1465     O1473   2.382       .  S
Zr1465     O1474   2.387       .  S
Zr1466     O1485   2.436       .  S
Zr1466     O1478   2.433       .  S
Zr1466     O1479   2.438       .  S
Zr1466     O1472   2.402       .  S
Zr1466     O1473   2.392       .  S
Zr1467     O1469   2.435       .  S
Zr1467     O1491   2.439       .  S
Zr1467     O1493   2.437       .  S
Zr1467     O1471   2.373       .  S
Zr1467     O1474   2.392       .  S
Zr1468     O1494   2.435       .  S
Zr1468     O1495   2.435       .  S
Zr1468     O1470   2.437   1_565  S
Zr1468     O1471   2.375       .  S
Zr1468     O1472   2.414       .  S
O1469      H1506   0.990       .  S
O1470      H1501   0.991       .  S
O1470      H1515   0.990       .  S
O1472      H1498   0.966       .  S
O1473     Zr1483   2.378       .  S
O1474     Zr1483   2.397       .  S
O1474      H1499   0.966       .  S
C1475      C3101   1.482       .  S
C1476      C2986   1.476       .  S
C1477      C2906   1.491       .  S
O1478      H1514   0.990       .  S
O1479      C1481   1.285       .  A
O1480      C1481   1.281       .  A
C1481      C2973   1.487       .  S
O1482     Zr1483   2.440       .  S
O1482      H1511   0.990       .  S
Zr1483     O1486   2.437       .  S
Zr1483     O1487   2.439       .  S
Zr1483     O1488   2.395       .  S
O1484      C1489   1.288       .  A
O1485      H1502   0.990       .  S
O1485      H1517   0.990       .  S
O1486      H1503   0.990       .  S
O1487      H1507   0.990       .  S
O1487      H1516   0.990       .  S
O1488      C1489   1.278       .  A
C1489      C3117   1.489       .  S
O1490      H1509   0.991       .  S
O1490      H1513   0.990       .  S
O1491      H1505   0.990       .  S
O1491      H1512   0.990       .  S
O1492      C1496   1.287       .  A
O1493      C1496   1.285       .  A
O1494      H1504   0.990       .  S
O1495      H1508   0.990       .  S
C1496      C2922   1.488       .  S
Zr1519     O1520   2.442       .  S
Zr1519     O1521   2.459       .  S
Zr1519     O1522   2.452       .  S
Zr1519     O1525   2.419       .  S
Zr1519     O1527   2.377       .  S
Zr1519     O1528   2.388       .  S
Zr1519     O1529   2.414       .  S
Zr1519     O1530   2.417       .  S
O1520      H1576   0.990       .  S
O1520      H1584   0.990       .  S
O1521      C1541   1.287       .  A
O1522      C1543   1.287       .  A
O1523     Zr1533   2.459       .  S
O1523      C1542   1.290       .  A
O1524     Zr1532   2.435       .  S
O1524      C1543   1.283       .  A
O1525      C1542   1.281       .  A
O1526     Zr1534   2.391       .  S
O1526      C1541   1.277       .  A
O1527     Zr1532   2.393       .  S
O1527     Zr1534   2.390       .  S
O1528     Zr1533   2.393       .  S
O1528     Zr1534   2.377       .  S
O1528      H1563   0.966       .  S
O1529     Zr1532   2.401       .  S
O1529     Zr1549   2.383       .  S
O1529      H1566   0.964       .  S
O1530     Zr1533   2.389       .  S
O1530     Zr1549   2.400       .  S
Zr1531     O1556   2.444       .  S
Zr1531     O1550   2.420       .  S
Zr1531     O1558   2.442       .  S
Zr1531     O1546   2.457       .  S
Zr1531     O1537   2.404       .  S
Zr1531     O1538   2.398       .  S
Zr1531     O1539   2.383       .  S
Zr1531     O1540   2.391       .  S
Zr1532     O1551   2.438       .  S
Zr1532     O1544   2.435       .  S
Zr1532     O1545   2.423       .  S
Zr1532     O1538   2.398       .  S
Zr1532     O1539   2.390       .  S
Zr1533     O1535   2.433       .  S
Zr1533     O1557   2.435       .  S
Zr1533     O1559   2.451       .  S
Zr1533     O1537   2.402       .  S
Zr1533     O1540   2.394       .  S
Zr1534     O1560   2.436       .  S
Zr1534     O1561   2.435       .  S
Zr1534     O1536   2.438       .  S
Zr1534     O1537   2.394       .  S
Zr1534     O1538   2.374       .  S
O1535      H1572   0.990       .  S
O1536      H1567   0.990   1_565  S
O1536      H1581   0.990       .  S
O1538      H1564   0.965       .  S
O1539     Zr1549   2.376       .  S
O1540     Zr1549   2.357       .  S
O1540      H1565   0.965       .  S
C1541      C3034   1.490   1_565  S
C1542      C2941   1.489       .  S
C1543      C2925   1.486       .  S
O1544      H1580   0.990       .  S
O1545      C1547   1.283       .  A
O1546      C1547   1.290       .  A
C1547      C2957   1.492       .  S
O1548     Zr1549   2.439       .  S
O1548      H1577   0.990       .  S
Zr1549     O1552   2.436       .  S
Zr1549     O1553   2.441       .  S
Zr1549     O1554   2.434       .  S
O1550      C1555   1.283       .  A
O1551      H1568   0.990       .  S
O1551      H1583   0.990       .  S
O1552      H1569   0.990       .  S
O1553      H1573   0.989       .  S
O1553      H1582   0.990       .  S
O1554      C1555   1.284       .  A
C1555      C3053   1.489       .  S
O1556      H1575   0.990       .  S
O1556      H1579   0.990       .  S
O1557      H1571   0.990       .  S
O1557      H1578   0.990       .  S
O1558      C1562   1.288       .  A
O1559      C1562   1.288       .  A
O1560      H1570   0.990       .  S
O1561      H1574   0.990       .  S
C1562      C3386   1.493       .  S
Zr1585     O1586   2.439       .  S
Zr1585     O1587   2.417       .  S
Zr1585     O1588   2.428       .  S
Zr1585     O1591   2.429       .  S
Zr1585     O1593   2.384       .  S
Zr1585     O1594   2.383       .  S
Zr1585     O1595   2.400       .  S
Zr1585     O1596   2.393       .  S
O1586      H1642   0.990       .  S
O1586      H1650   0.990       .  S
O1587      C1607   1.282   1_655  A
O1588      C1609   1.284       .  A
O1589     Zr1599   2.422       .  S
O1589      C1608   1.283       .  A
O1590     Zr1598   2.461       .  S
O1590      C1609   1.291       .  A
O1591      C1608   1.284       .  A
O1592     Zr1600   2.436   1_455  S
O1592      C1607   1.285       .  A
O1593     Zr1598   2.391       .  S
O1593     Zr1600   2.363       .  S
O1594     Zr1599   2.384       .  S
O1594     Zr1600   2.383       .  S
O1594      H1629   0.965       .  S
O1595     Zr1598   2.396       .  S
O1595     Zr1615   2.394       .  S
O1595      H1632   0.966       .  S
O1596     Zr1599   2.388       .  S
O1596     Zr1615   2.382       .  S
Zr1597     O1622   2.442       .  S
Zr1597     O1616   2.460       .  S
Zr1597     O1624   2.468       .  S
Zr1597     O1612   2.415       .  S
Zr1597     O1603   2.374       .  S
Zr1597     O1604   2.428       .  S
Zr1597     O1605   2.384       .  S
Zr1597     O1606   2.385       .  S
Zr1598     O1617   2.436       .  S
Zr1598     O1610   2.434       .  S
Zr1598     O1611   2.450       .  S
Zr1598     O1604   2.401       .  S
Zr1598     O1605   2.393       .  S
Zr1599     O1601   2.436       .  S
Zr1599     O1623   2.438       .  S
Zr1599     O1625   2.434       .  S
Zr1599     O1603   2.366       .  S
Zr1599     O1606   2.389       .  S
Zr1600     O1626   2.436       .  S
Zr1600     O1627   2.437       .  S
Zr1600     O1602   2.435   1_655  S
Zr1600     O1603   2.371       .  S
Zr1600     O1604   2.412       .  S
O1601      H1638   0.990       .  S
O1602      H1633   0.990       .  S
O1602      H1647   0.990       .  S
O1604      H1630   0.966       .  S
O1605     Zr1615   2.379       .  S
O1606     Zr1615   2.402       .  S
O1606      H1631   0.966       .  S
C1607      C2826   1.481       .  S
C1608      C2858   1.476       .  S
C1609      C3021   1.496       .  S
O1610      H1646   0.990       .  S
O1611      C1613   1.288       .  A
O1612      C1613   1.279       .  A
C1613      C2877   1.477       .  S
O1614     Zr1615   2.441       .  S
O1614      H1643   0.990       .  S
Zr1615     O1618   2.439       .  S
Zr1615     O1619   2.437       .  S
Zr1615     O1620   2.392       .  S
O1616      C1621   1.288       .  A
O1617      H1634   0.990       .  S
O1617      H1649   0.990       .  S
O1618      H1635   0.990       .  S
O1619      H1639   0.990       .  S
O1619      H1648   0.990       .  S
O1620      C1621   1.276       .  A
C1621      C2842   1.477       .  S
O1622      H1641   0.991       .  S
O1622      H1645   0.990       .  S
O1623      H1637   0.990       .  S
O1623      H1644   0.990       .  S
O1624      C1628   1.291       .  A
O1625      C1628   1.283       .  A
O1626      H1636   0.990   1_655  S
O1627      H1640   0.990       .  S
C1628      C2890   1.490       .  S
Zr1651     O1652   2.442       .  S
Zr1651     O1653   2.458       .  S
Zr1651     O1654   2.465       .  S
Zr1651     O1657   2.410       .  S
Zr1651     O1659   2.374       .  S
Zr1651     O1660   2.391       .  S
Zr1651     O1661   2.407       .  S
Zr1651     O1662   2.420       .  S
O1652      H1708   0.990       .  S
O1652      H1716   0.990       .  S
O1653      C1673   1.287       .  A
O1654      C1675   1.290       .  A
O1655     Zr1665   2.427       .  S
O1655      C1674   1.284       .  A
O1656     Zr1664   2.432       .  S
O1656      C1675   1.283       .  A
O1657      C1674   1.280       .  A
O1658     Zr1666   2.378       .  S
O1658      C1673   1.275       .  A
O1659     Zr1664   2.393       .  S
O1659     Zr1666   2.395       .  S
O1660     Zr1665   2.393       .  S
O1660     Zr1666   2.371       .  S
O1660      H1695   0.966       .  S
O1661     Zr1664   2.395       .  S
O1661     Zr1681   2.376       .  S
O1661      H1698   0.963       .  S
O1662     Zr1665   2.395       .  S
O1662     Zr1681   2.402       .  S
Zr1663     O1688   2.444       .  S
Zr1663     O1682   2.408       .  S
Zr1663     O1690   2.433       .  S
Zr1663     O1678   2.441       .  S
Zr1663     O1669   2.395       .  S
Zr1663     O1670   2.393       .  S
Zr1663     O1671   2.383       .  S
Zr1663     O1672   2.383       .  S
Zr1664     O1683   2.435       .  S
Zr1664     O1676   2.434       .  S
Zr1664     O1677   2.409       .  S
Zr1664     O1670   2.401       .  S
Zr1664     O1671   2.392       .  S
Zr1665     O1667   2.435       .  S
Zr1665     O1689   2.436       .  S
Zr1665     O1691   2.445       .  S
Zr1665     O1669   2.395       .  S
Zr1665     O1672   2.383       .  S
Zr1666     O1692   2.436       .  S
Zr1666     O1693   2.437       .  S
Zr1666     O1668   2.438       .  S
Zr1666     O1669   2.390       .  S
Zr1666     O1670   2.363       .  S
O1667      H1704   0.990       .  S
O1668      H1699   0.990   1_655  S
O1668      H1713   0.990       .  S
O1670      H1696   0.965       .  S
O1671     Zr1681   2.376       .  S
O1672     Zr1681   2.355       .  S
O1672      H1697   0.965       .  S
C1673      C2778   1.480   1_655  S
C1674      C2746   1.481       .  S
C1675      C2893   1.490       .  S
O1676      H1712   0.990       .  S
O1677      C1679   1.281       .  A
O1678      C1679   1.288       .  A
C1679      C2762   1.476       .  S
O1680     Zr1681   2.434       .  S
O1680      H1709   0.990       .  S
Zr1681     O1684   2.436       .  S
Zr1681     O1685   2.438       .  S
Zr1681     O1686   2.431       .  S
O1682      C1687   1.279       .  A
O1683      H1700   0.990       .  S
O1683      H1715   0.990       .  S
O1684      H1701   0.990       .  S
O1685      H1705   0.990       .  S
O1685      H1714   0.990       .  S
O1686      C1687   1.285       .  A
C1687      C2797   1.487       .  S
O1688      H1707   0.990       .  S
O1688      H1711   0.990       .  S
O1689      H1703   0.990       .  S
O1689      H1710   0.990       .  S
O1690      C1694   1.285       .  A
O1691      C1694   1.288       .  A
O1692      H1702   0.990       .  S
O1693      H1706   0.990       .  S
C1694      C2810   1.494       .  S
Zr1717     O1718   2.437       .  S
Zr1717     O1719   2.411       .  S
Zr1717     O1720   2.428       .  S
Zr1717     O1723   2.435       .  S
Zr1717     O1725   2.381       .  S
Zr1717     O1726   2.383       .  S
Zr1717     O1727   2.400       .  S
Zr1717     O1728   2.394       .  S
O1718      H1774   0.990       .  S
O1718      H1782   0.990       .  S
O1719      C1739   1.281       .  A
O1720      C1741   1.283       .  A
O1721     Zr1731   2.412       .  S
O1721      C1740   1.281       .  A
O1722     Zr1730   2.461       .  S
O1722      C1741   1.291       .  A
O1723      C1740   1.285       .  A
O1724     Zr1732   2.429       .  S
O1724      C1739   1.282       .  A
O1725     Zr1730   2.388       .  S
O1725     Zr1732   2.361       .  S
O1726     Zr1731   2.392       .  S
O1726     Zr1732   2.385       .  S
O1726      H1761   0.966       .  S
O1727     Zr1730   2.397       .  S
O1727     Zr1747   2.397       .  S
O1727      H1764   0.966       .  S
O1728     Zr1731   2.385       .  S
O1728     Zr1747   2.384       .  S
Zr1729     O1754   2.442       .  S
Zr1729     O1748   2.457       .  S
Zr1729     O1756   2.470       .  S
Zr1729     O1744   2.418       .  S
Zr1729     O1735   2.377       .  S
Zr1729     O1736   2.428       .  S
Zr1729     O1737   2.386       .  S
Zr1729     O1738   2.384       .  S
Zr1730     O1749   2.437       .  S
Zr1730     O1742   2.434       .  S
Zr1730     O1743   2.438       .  S
Zr1730     O1736   2.408       .  S
Zr1730     O1737   2.393       .  S
Zr1731     O1733   2.437       .  S
Zr1731     O1755   2.439       .  S
Zr1731     O1757   2.429       .  S
Zr1731     O1735   2.369       .  S
Zr1731     O1738   2.390       .  S
Zr1732     O1758   2.435       .  S
Zr1732     O1759   2.435       .  S
Zr1732     O1734   2.436       .  S
Zr1732     O1735   2.376       .  S
Zr1732     O1736   2.409       .  S
O1733      H1770   0.990       .  S
O1734      H1765   0.990       .  S
O1734      H1779   0.990       .  S
O1736      H1762   0.966       .  S
O1737     Zr1747   2.376       .  S
O1738     Zr1747   2.399       .  S
O1738      H1763   0.966       .  S
C1739      C2730   1.484       .  S
C1740      C2829   1.483   1_545  S
C1741      C3181   1.500       .  S
O1742      H1778   0.990       .  S
O1743      C1745   1.286       .  A
O1744      C1745   1.279       .  A
C1745      C2845   1.473       .  S
O1746     Zr1747   2.439       .  S
O1746      H1775   0.990       .  S
Zr1747     O1750   2.439       .  S
Zr1747     O1751   2.439       .  S
Zr1747     O1752   2.398       .  S
O1748      C1753   1.286       .  A
O1749      H1766   0.990       .  S
O1749      H1781   0.990       .  S
O1750      H1767   0.990       .  S
O1751      H1771   0.990       .  S
O1751      H1780   0.990       .  S
O1752      C1753   1.278       .  A
C1753      C2714   1.482       .  S
O1754      H1773   0.990       .  S
O1754      H1777   0.990       .  S
O1755      H1769   0.990       .  S
O1755      H1776   0.990       .  S
O1756      C1760   1.291       .  A
O1757      C1760   1.283       .  A
O1758      H1768   0.990       .  S
O1759      H1772   0.990       .  S
C1760      C2698   1.489       .  S
Zr1783     O1784   2.443       .  S
Zr1783     O1785   2.467       .  S
Zr1783     O1786   2.460       .  S
Zr1783     O1789   2.402       .  S
Zr1783     O1791   2.373       .  S
Zr1783     O1792   2.390       .  S
Zr1783     O1793   2.413       .  S
Zr1783     O1794   2.427       .  S
O1784      H1840   0.990       .  S
O1784      H1848   0.991       .  S
O1785      C1805   1.289       .  A
O1786      C1807   1.288       .  A
O1787     Zr1797   2.449   1_565  S
O1787      C1806   1.288       .  A
O1788     Zr1796   2.432       .  S
O1788      C1807   1.282       .  A
O1789      C1806   1.278   1_545  A
O1790     Zr1798   2.383       .  S
O1790      C1805   1.275       .  A
O1791     Zr1796   2.390       .  S
O1791     Zr1798   2.399       .  S
O1792     Zr1797   2.393       .  S
O1792     Zr1798   2.372       .  S
O1792      H1827   0.966       .  S
O1793     Zr1796   2.397       .  S
O1793     Zr1813   2.382       .  S
O1793      H1830   0.963       .  S
O1794     Zr1797   2.399       .  S
O1794     Zr1813   2.405       .  S
Zr1795     O1820   2.444       .  S
Zr1795     O1814   2.408       .  S
Zr1795     O1822   2.435       .  S
Zr1795     O1810   2.450       .  S
Zr1795     O1801   2.399       .  S
Zr1795     O1802   2.394       .  S
Zr1795     O1803   2.383       .  S
Zr1795     O1804   2.385       .  S
Zr1796     O1815   2.439       .  S
Zr1796     O1808   2.434       .  S
Zr1796     O1809   2.405       .  S
Zr1796     O1802   2.400       .  S
Zr1796     O1803   2.395       .  S
Zr1797     O1799   2.434   1_545  S
Zr1797     O1821   2.435       .  S
Zr1797     O1823   2.460       .  S
Zr1797     O1801   2.397       .  S
Zr1797     O1804   2.391       .  S
Zr1798     O1824   2.435       .  S
Zr1798     O1825   2.435       .  S
Zr1798     O1800   2.436       .  S
Zr1798     O1801   2.387       .  S
Zr1798     O1802   2.371       .  S
O1799      H1836   0.990       .  S
O1800      H1831   0.990       .  S
O1800      H1845   0.990       .  S
O1802      H1828   0.965       .  S
O1803     Zr1813   2.378       .  S
O1804     Zr1813   2.348       .  S
O1804      H1829   0.964       .  S
C1805      C2653   1.488       .  S
C1806      C2781   1.481       .  S
C1807      C2701   1.487       .  S
O1808      H1844   0.990       .  S
O1809      C1811   1.279       .  A
O1810      C1811   1.289       .  A
C1811      C2794   1.478       .  S
O1812     Zr1813   2.439       .  S
O1812      H1841   0.990       .  S
Zr1813     O1816   2.436       .  S
Zr1813     O1817   2.443       .  S
Zr1813     O1818   2.435       .  S
O1814      C1819   1.278       .  A
O1815      H1832   0.990       .  S
O1815      H1847   0.990       .  S
O1816      H1833   0.990       .  S
O1817      H1837   0.990       .  S
O1817      H1846   0.990       .  S
O1818      C1819   1.286       .  A
C1819      C2666   1.491       .  S
O1820      H1839   0.990       .  S
O1820      H1843   0.990       .  S
O1821      H1835   0.990       .  S
O1821      H1842   0.990       .  S
O1822      C1826   1.285       .  A
O1823      C1826   1.291       .  A
O1824      H1834   0.990       .  S
O1825      H1838   0.990       .  S
C1826      C2685   1.495       .  S
Zr1849     O1850   2.435       .  S
Zr1849     O1851   2.428       .  S
Zr1849     O1852   2.442       .  S
Zr1849     O1855   2.430       .  S
Zr1849     O1857   2.379       .  S
Zr1849     O1858   2.382       .  S
Zr1849     O1859   2.404       .  S
Zr1849     O1860   2.393       .  S
O1850      H1906   0.990       .  S
O1850      H1914   0.990       .  S
O1851      C1871   1.283   1_545  A
O1852      C1873   1.286       .  A
O1853     Zr1863   2.417       .  S
O1853      C1872   1.282       .  A
O1854     Zr1862   2.442       .  S
O1854      C1873   1.288       .  A
O1855      C1872   1.284       .  A
O1856     Zr1864   2.426   1_565  S
O1856      C1871   1.282       .  A
O1857     Zr1862   2.390       .  S
O1857     Zr1864   2.362       .  S
O1858     Zr1863   2.393       .  S
O1858     Zr1864   2.383       .  S
O1858      H1893   0.966       .  S
O1859     Zr1862   2.400       .  S
O1859     Zr1879   2.396       .  S
O1859      H1896   0.966       .  S
O1860     Zr1863   2.386       .  S
O1860     Zr1879   2.379       .  S
Zr1861     O1886   2.442       .  S
Zr1861     O1880   2.465       .  S
Zr1861     O1888   2.471       .  S
Zr1861     O1876   2.422       .  S
Zr1861     O1867   2.386       .  S
Zr1861     O1868   2.426       .  S
Zr1861     O1869   2.385       .  S
Zr1861     O1870   2.386       .  S
Zr1862     O1881   2.437       .  S
Zr1862     O1874   2.435       .  S
Zr1862     O1875   2.433       .  S
Zr1862     O1868   2.402       .  S
Zr1862     O1869   2.389       .  S
Zr1863     O1865   2.437       .  S
Zr1863     O1887   2.439       .  S
Zr1863     O1889   2.420       .  S
Zr1863     O1867   2.376       .  S
Zr1863     O1870   2.391       .  S
Zr1864     O1890   2.435       .  S
Zr1864     O1891   2.435       .  S
Zr1864     O1866   2.437   1_545  S
Zr1864     O1867   2.381       .  S
Zr1864     O1868   2.406       .  S
O1865      H1902   0.990       .  S
O1866      H1897   0.990       .  S
O1866      H1911   0.990       .  S
O1868      H1894   0.966       .  S
O1869     Zr1879   2.374       .  S
O1870     Zr1879   2.398       .  S
O1870      H1895   0.966       .  S
C1871      C2861   1.485       .  S
C1872      C2733   1.479   1_655  S
C1873      C2909   1.493       .  S
O1874      H1910   0.990       .  S
O1875      C1877   1.285       .  A
O1876      C1877   1.281       .  A
C1877      C2717   1.486       .  S
O1878     Zr1879   2.438       .  S
O1878      H1907   0.990       .  S
Zr1879     O1882   2.438       .  S
Zr1879     O1883   2.439       .  S
Zr1879     O1884   2.386       .  S
O1880      C1885   1.288       .  A
O1881      H1898   0.990       .  S
O1881      H1913   0.990       .  S
O1882      H1899   0.990       .  S
O1883      H1903   0.990       .  S
O1883      H1912   0.990       .  S
O1884      C1885   1.275       .  A
C1885      C2874   1.479       .  S
O1886      H1905   0.991       .  S
O1886      H1909   0.990       .  S
O1887      H1901   0.990       .  S
O1887      H1908   0.990       .  S
O1888      C1892   1.291       .  A
O1889      C1892   1.281       .  A
O1890      H1900   0.990       .  S
O1891      H1904   0.990       .  S
C1892      C2637   1.493       .  S
Zr1915     O1916   2.442       .  S
Zr1915     O1917   2.455       .  S
Zr1915     O1918   2.469       .  S
Zr1915     O1921   2.412       .  S
Zr1915     O1923   2.378       .  S
Zr1915     O1924   2.392       .  S
Zr1915     O1925   2.402       .  S
Zr1915     O1926   2.419       .  S
O1916      H1972   0.990       .  S
O1916      H1980   0.990       .  S
O1917      C1937   1.287       .  A
O1918      C1939   1.291       .  A
O1919     Zr1929   2.452   1_455  S
O1919      C1938   1.289       .  A
O1920     Zr1928   2.424       .  S
O1920      C1939   1.281       .  A
O1921      C1938   1.280   1_655  A
O1922     Zr1930   2.375       .  S
O1922      C1937   1.274       .  A
O1923     Zr1928   2.391       .  S
O1923     Zr1930   2.394       .  S
O1924     Zr1929   2.389       .  S
O1924     Zr1930   2.374       .  S
O1924      H1959   0.966       .  S
O1925     Zr1928   2.397       .  S
O1925     Zr1945   2.372       .  S
O1925      H1962   0.963       .  S
O1926     Zr1929   2.397       .  S
O1926     Zr1945   2.399       .  S
Zr1927     O1952   2.442       .  S
Zr1927     O1946   2.406       .  S
Zr1927     O1954   2.436       .  S
Zr1927     O1942   2.457       .  S
Zr1927     O1933   2.398       .  S
Zr1927     O1934   2.395       .  S
Zr1927     O1935   2.382       .  S
Zr1927     O1936   2.388       .  S
Zr1928     O1947   2.437       .  S
Zr1928     O1940   2.434       .  S
Zr1928     O1941   2.405       .  S
Zr1928     O1934   2.397       .  S
Zr1928     O1935   2.389       .  S
Zr1929     O1931   2.434   1_655  S
Zr1929     O1953   2.436       .  S
Zr1929     O1955   2.453       .  S
Zr1929     O1933   2.397       .  S
Zr1929     O1936   2.387       .  S
Zr1930     O1956   2.436       .  S
Zr1930     O1957   2.435       .  S
Zr1930     O1932   2.437       .  S
Zr1930     O1933   2.390       .  S
Zr1930     O1934   2.365       .  S
O1931      H1968   0.990       .  S
O1932      H1963   0.990   1_545  S
O1932      H1977   0.990       .  S
O1934      H1960   0.965       .  S
O1935     Zr1945   2.376       .  S
O1936     Zr1945   2.354       .  S
O1936      H1961   0.965       .  S
C1937      C2749   1.475   1_545  S
C1938      C2650   1.487       .  S
C1939      C2634   1.490       .  S
O1940      H1976   0.990       .  S
O1941      C1943   1.279       .  A
O1942      C1943   1.290       .  A
C1943      C2669   1.484       .  S
O1944     Zr1945   2.439       .  S
O1944      H1973   0.990       .  S
Zr1945     O1948   2.438       .  S
Zr1945     O1949   2.441       .  S
Zr1945     O1950   2.422       .  S
O1946      C1951   1.279       .  A
O1947      H1964   0.990       .  S
O1947      H1979   0.990       .  S
O1948      H1965   0.990       .  S
O1949      H1969   0.990       .  S
O1949      H1978   0.990   1_655  S
O1950      C1951   1.284       .  A
C1951      C2765   1.479       .  S
O1952      H1971   0.990       .  S
O1952      H1975   0.990       .  S
O1953      H1967   0.990       .  S
O1953      H1974   0.990       .  S
O1954      C1958   1.287       .  A
O1955      C1958   1.289       .  A
O1956      H1966   0.990       .  S
O1957      H1970   0.990       .  S
C1958      C2618   1.495       .  S
Zr1981     O1982   2.443       .  S
Zr1981     O1983   2.467       .  S
Zr1981     O1984   2.468       .  S
Zr1981     O1987   2.414       .  S
Zr1981     O1989   2.376       .  S
Zr1981     O1990   2.388       .  S
Zr1981     O1991   2.412       .  S
Zr1981     O1992   2.423       .  S
O1982      H2038   0.990       .  S
O1982      H2046   0.990       .  S
O1983      C2003   1.289       .  A
O1984      C2005   1.290       .  A
O1985     Zr1995   2.448       .  S
O1985      C2004   1.287       .  A
O1986     Zr1994   2.436       .  S
O1986      C2005   1.283       .  A
O1987      C2004   1.280       .  A
O1988     Zr1996   2.383       .  S
O1988      C2003   1.273       .  A
O1989     Zr1994   2.399       .  S
O1989     Zr1996   2.396       .  S
O1990     Zr1995   2.394       .  S
O1990     Zr1996   2.374       .  S
O1990      H2025   0.966       .  S
O1991     Zr1994   2.400       .  S
O1991     Zr2011   2.376       .  S
O1991      H2028   0.963       .  S
O1992     Zr1995   2.394       .  S
O1992     Zr2011   2.405       .  S
Zr1993     O2018   2.445       .  S
Zr1993     O2012   2.415       .  S
Zr1993     O2020   2.424       .  S
Zr1993     O2008   2.447       .  S
Zr1993     O1999   2.400       .  S
Zr1993     O2000   2.391       .  S
Zr1993     O2001   2.378       .  S
Zr1993     O2002   2.389       .  S
Zr1994     O2013   2.438       .  S
Zr1994     O2006   2.434       .  S
Zr1994     O2007   2.421       .  S
Zr1994     O2000   2.401       .  S
Zr1994     O2001   2.391       .  S
Zr1995     O1997   2.434       .  S
Zr1995     O2019   2.436       .  S
Zr1995     O2021   2.452       .  S
Zr1995     O1999   2.397       .  S
Zr1995     O2002   2.390       .  S
Zr1996     O2022   2.436       .  S
Zr1996     O2023   2.437       .  S
Zr1996     O1998   2.437       .  S
Zr1996     O1999   2.390       .  S
Zr1996     O2000   2.366       .  S
O1997      H2034   0.990       .  S
O1998      H2029   0.990       .  S
O1998      H2043   0.990       .  S
O2000      H2026   0.965       .  S
O2001     Zr2011   2.376       .  S
O2002     Zr2011   2.355       .  S
O2002      H2027   0.965       .  S
C2003      C2554   1.480       .  S
C2004      C2586   1.476       .  S
C2005      C2602   1.498       .  S
O2006      H2042   0.990       .  S
O2007      C2009   1.283       .  A
O2008      C2009   1.288       .  A
C2009      C2570   1.482       .  S
O2010     Zr2011   2.438       .  S
O2010      H2039   0.990       .  S
Zr2011     O2014   2.436       .  S
Zr2011     O2015   2.440       .  S
Zr2011     O2016   2.432       .  S
O2012      C2017   1.280       .  A
O2013      H2030   0.990       .  S
O2013      H2045   0.990       .  S
O2014      H2031   0.990       .  S
O2015      H2035   0.990       .  S
O2015      H2044   0.989       .  S
O2016      C2017   1.285       .  A
C2017      C2541   1.489       .  S
O2018      H2037   0.990       .  S
O2018      H2041   0.990       .  S
O2019      H2033   0.990       .  S
O2019      H2040   0.990       .  S
O2020      C2024   1.285       .  A
O2021      C2024   1.289       .  A
O2022      H2032   0.990       .  S
O2023      H2036   0.990       .  S
C2024      C2813   1.489       .  S
Zr2047     O2048   2.437       .  S
Zr2047     O2049   2.415       .  S
Zr2047     O2050   2.440       .  S
Zr2047     O2053   2.418       .  S
Zr2047     O2055   2.376       .  S
Zr2047     O2056   2.387       .  S
Zr2047     O2057   2.395       .  S
Zr2047     O2058   2.396       .  S
O2048      H2104   0.990       .  S
O2048      H2112   0.990       .  S
O2049      C2069   1.280       .  A
O2050      C2071   1.287       .  A
O2051     Zr2061   2.429       .  S
O2051      C2070   1.283       .  A
O2052     Zr2060   2.440       .  S
O2052      C2071   1.285       .  A
O2053      C2070   1.283       .  A
O2054     Zr2062   2.433       .  S
O2054      C2069   1.284       .  A
O2055     Zr2060   2.387       .  S
O2055     Zr2062   2.364       .  S
O2056     Zr2061   2.389       .  S
O2056     Zr2062   2.382       .  S
O2056      H2091   0.966       .  S
O2057     Zr2060   2.394       .  S
O2057     Zr2077   2.399       .  S
O2057      H2094   0.966       .  S
O2058     Zr2061   2.390       .  S
O2058     Zr2077   2.382       .  S
Zr2059     O2084   2.441       .  S
Zr2059     O2078   2.474       .  S
Zr2059     O2086   2.471       .  S
Zr2059     O2074   2.430       .  S
Zr2059     O2065   2.385       .  S
Zr2059     O2066   2.429       .  S
Zr2059     O2067   2.384       .  S
Zr2059     O2068   2.385       .  S
Zr2060     O2079   2.434       .  S
Zr2060     O2072   2.433       .  S
Zr2060     O2073   2.422       .  S
Zr2060     O2066   2.404       .  S
Zr2060     O2067   2.397       .  S
Zr2061     O2063   2.438       .  S
Zr2061     O2085   2.440       .  S
Zr2061     O2087   2.446       .  S
Zr2061     O2065   2.370       .  S
Zr2061     O2068   2.392       .  S
Zr2062     O2088   2.436       .  S
Zr2062     O2089   2.437       .  S
Zr2062     O2064   2.437       .  S
Zr2062     O2065   2.376       .  S
Zr2062     O2066   2.413       .  S
O2063      H2100   0.990       .  S
O2064      H2095   0.990       .  S
O2064      H2109   0.990       .  S
O2066      H2092   0.966       .  S
O2067     Zr2077   2.379       .  S
O2068     Zr2077   2.397       .  S
O2068      H2093   0.965       .  S
C2069      C2490   1.467       .  S
C2070      C2525   1.475       .  S
C2071      C3677   1.508       .  S
O2072      H2108   0.990       .  S
O2073      C2075   1.282       .  A
O2074      C2075   1.282       .  A
C2075      C2506   1.477       .  S
O2076     Zr2077   2.439       .  S
O2076      H2105   0.990       .  S
Zr2077     O2080   2.437       .  S
Zr2077     O2081   2.440       .  S
Zr2077     O2082   2.395       .  S
O2078      C2083   1.290       .  A
O2079      H2096   0.990       .  S
O2079      H2111   0.990       .  S
O2080      H2097   0.990       .  S
O2081      H2101   0.990       .  S
O2081      H2110   0.990       .  S
O2082      C2083   1.278       .  A
C2083      C2474   1.492       .  S
O2084      H2103   0.991       .  S
O2084      H2107   0.990       .  S
O2085      H2099   0.990       .  S
O2085      H2106   0.990       .  S
O2086      C2090   1.292       .  A
O2087      C2090   1.286       .  A
O2088      H2098   0.990       .  S
O2089      H2102   0.991       .  S
C2090      C2605   1.503       .  S
Zr2113     O2114   2.442       .  S
Zr2113     O2115   2.463       .  S
Zr2113     O2116   2.463       .  S
Zr2113     O2119   2.399       .  S
Zr2113     O2121   2.374       .  S
Zr2113     O2122   2.388       .  S
Zr2113     O2123   2.404   1_455  S
Zr2113     O2124   2.423       .  S
O2114      H2170   0.990       .  S
O2114      H2178   0.990       .  S
O2115      C2135   1.288       .  A
O2116      C2137   1.289       .  A
O2117     Zr2127   2.457       .  S
O2117      C2136   1.290       .  A
O2118     Zr2126   2.429       .  S
O2118      C2137   1.282   1_655  A
O2119      C2136   1.277       .  A
O2120     Zr2128   2.396       .  S
O2120      C2135   1.277       .  A
O2121     Zr2126   2.396   1_455  S
O2121     Zr2128   2.392       .  S
O2122     Zr2127   2.387       .  S
O2122     Zr2128   2.375       .  S
O2122      H2157   0.966       .  S
O2123     Zr2126   2.397       .  S
O2123     Zr2143   2.376       .  S
O2123      H2160   0.963       .  S
O2124     Zr2127   2.397       .  S
O2124     Zr2143   2.403   1_455  S
Zr2125     O2150   2.441       .  S
Zr2125     O2144   2.417       .  S
Zr2125     O2152   2.443       .  S
Zr2125     O2140   2.448       .  S
Zr2125     O2131   2.401   1_655  S
Zr2125     O2132   2.399       .  S
Zr2125     O2133   2.379       .  S
Zr2125     O2134   2.390       .  S
Zr2126     O2145   2.436       .  S
Zr2126     O2138   2.434       .  S
Zr2126     O2139   2.415       .  S
Zr2126     O2132   2.399       .  S
Zr2126     O2133   2.388       .  S
Zr2127     O2129   2.436       .  S
Zr2127     O2151   2.436       .  S
Zr2127     O2153   2.452       .  S
Zr2127     O2131   2.398       .  S
Zr2127     O2134   2.393   1_455  S
Zr2128     O2154   2.436       .  S
Zr2128     O2155   2.436       .  S
Zr2128     O2130   2.438       .  S
Zr2128     O2131   2.399       .  S
Zr2128     O2132   2.373   1_455  S
O2129      H2166   0.990       .  S
O2130      H2161   0.990       .  S
O2130      H2175   0.990       .  S
O2132      H2158   0.965       .  S
O2133     Zr2143   2.372       .  S
O2134     Zr2143   2.359       .  S
O2134      H2159   0.965       .  S
C2135      C2442   1.476       .  S
C2136      C2557   1.475       .  S
C2137      C2458   1.491       .  S
O2138      H2174   0.990       .  S
O2139      C2141   1.282       .  A
O2140      C2141   1.288       .  A
C2141      C2538   1.480       .  S
O2142     Zr2143   2.439       .  S
O2142      H2171   0.990       .  S
Zr2143     O2146   2.438       .  S
Zr2143     O2147   2.440       .  S
Zr2143     O2148   2.432       .  S
O2144      C2149   1.281       .  A
O2145      H2162   0.990       .  S
O2145      H2177   0.990       .  S
O2146      H2163   0.990       .  S
O2147      H2167   0.990       .  S
O2147      H2176   0.990       .  S
O2148      C2149   1.285       .  A
C2149      C2426   1.474       .  S
O2150      H2169   0.990       .  S
O2150      H2173   0.990       .  S
O2151      H2165   0.990       .  S
O2151      H2172   0.990       .  S
O2152      C2156   1.287       .  A
O2153      C2156   1.289   1_455  A
O2154      H2164   0.990       .  S
O2155      H2168   0.990   1_455  S
C2156      C2621   1.492       .  S
Zr2179     O2180   2.439       .  S
Zr2179     O2181   2.409       .  S
Zr2179     O2182   2.417       .  S
Zr2179     O2185   2.410       .  S
Zr2179     O2187   2.378       .  S
Zr2179     O2188   2.385       .  S
Zr2179     O2189   2.394       .  S
Zr2179     O2190   2.397       .  S
O2180      H2236   0.990       .  S
O2180      H2244   0.990       .  S
O2181      C2201   1.279       .  A
O2182      C2203   1.280       .  A
O2183     Zr2193   2.434       .  S
O2183      C2202   1.283       .  A
O2184     Zr2192   2.453   1_455  S
O2184      C2203   1.289       .  A
O2185      C2202   1.280       .  A
O2186     Zr2194   2.424       .  S
O2186      C2201   1.284       .  A
O2187     Zr2192   2.387   1_455  S
O2187     Zr2194   2.364       .  S
O2188     Zr2193   2.392       .  S
O2188     Zr2194   2.381       .  S
O2188      H2223   0.966       .  S
O2189     Zr2192   2.401   1_455  S
O2189     Zr2209   2.395   1_455  S
O2189      H2226   0.966   1_455  S
O2190     Zr2193   2.388       .  S
O2190     Zr2209   2.385   1_455  S
Zr2191     O2216   2.443       .  S
Zr2191     O2210   2.456       .  S
Zr2191     O2218   2.472       .  S
Zr2191     O2206   2.429       .  S
Zr2191     O2197   2.385   1_655  S
Zr2191     O2198   2.422       .  S
Zr2191     O2199   2.386       .  S
Zr2191     O2200   2.388       .  S
Zr2192     O2211   2.436       .  S
Zr2192     O2204   2.434       .  S
Zr2192     O2205   2.445       .  S
Zr2192     O2198   2.398       .  S
Zr2192     O2199   2.397       .  S
Zr2193     O2195   2.436       .  S
Zr2193     O2217   2.438       .  S
Zr2193     O2219   2.444       .  S
Zr2193     O2197   2.378       .  S
Zr2193     O2200   2.392   1_455  S
Zr2194     O2220   2.435       .  S
Zr2194     O2221   2.435       .  S
Zr2194     O2196   2.437       .  S
Zr2194     O2197   2.375       .  S
Zr2194     O2198   2.405   1_455  S
O2195      H2232   0.990       .  S
O2196      H2227   0.990       .  S
O2196      H2241   0.990       .  S
O2198      H2224   0.966       .  S
O2199     Zr2209   2.383       .  S
O2200     Zr2209   2.396       .  S
O2200      H2225   0.965       .  S
C2201      C2410   1.480       .  S
C2202      C2493   1.468       .  S
C2203      C3485   1.492       .  S
O2204      H2240   0.990       .  S
O2205      C2207   1.287       .  A
O2206      C2207   1.283       .  A
C2207      C2477   1.488       .  S
O2208     Zr2209   2.436   1_455  S
O2208      H2237   0.990       .  S
Zr2209     O2212   2.435       .  S
Zr2209     O2213   2.440       .  S
Zr2209     O2214   2.390       .  S
O2210      C2215   1.287       .  A
O2211      H2228   0.990       .  S
O2211      H2243   0.990       .  S
O2212      H2229   0.990       .  S
O2213      H2233   0.990       .  S
O2213      H2242   0.990       .  S
O2214      C2215   1.276       .  A
C2215      C2394   1.477       .  S
O2216      H2235   0.990       .  S
O2216      H2239   0.991       .  S
O2217      H2231   0.990       .  S
O2217      H2238   0.990       .  S
O2218      C2222   1.291   1_655  A
O2219      C2222   1.285       .  A
O2220      H2230   0.990       .  S
O2221      H2234   0.990   1_455  S
C2222      C2461   1.495       .  S
Zr2245     O2246   2.442       .  S
Zr2245     O2247   2.464       .  S
Zr2245     O2248   2.465       .  S
Zr2245     O2251   2.422       .  S
Zr2245     O2253   2.378       .  S
Zr2245     O2254   2.384       .  S
Zr2245     O2255   2.410   1_565  S
Zr2245     O2256   2.418       .  S
O2246      H2302   0.990       .  S
O2246      H2310   0.990       .  S
O2247      C2267   1.289       .  A
O2248      C2269   1.288       .  A
O2249     Zr2259   2.437       .  S
O2249      C2268   1.286       .  A
O2250     Zr2258   2.423       .  S
O2250      C2269   1.283   1_545  A
O2251      C2268   1.282       .  A
O2252     Zr2260   2.392       .  S
O2252      C2267   1.276       .  A
O2253     Zr2258   2.394   1_565  S
O2253     Zr2260   2.389       .  S
O2254     Zr2259   2.391       .  S
O2254     Zr2260   2.371       .  S
O2254      H2289   0.966       .  S
O2255     Zr2258   2.401       .  S
O2255     Zr2275   2.382       .  S
O2255      H2292   0.966       .  S
O2256     Zr2259   2.396       .  S
O2256     Zr2275   2.404   1_565  S
Zr2257     O2282   2.439       .  S
Zr2257     O2276   2.411       .  S
Zr2257     O2284   2.448       .  S
Zr2257     O2272   2.449       .  S
Zr2257     O2263   2.398   1_545  S
Zr2257     O2264   2.398       .  S
Zr2257     O2265   2.382       .  S
Zr2257     O2266   2.385       .  S
Zr2258     O2277   2.438       .  S
Zr2258     O2270   2.434       .  S
Zr2258     O2271   2.418       .  S
Zr2258     O2264   2.394       .  S
Zr2258     O2265   2.387       .  S
Zr2259     O2261   2.434       .  S
Zr2259     O2283   2.434       .  S
Zr2259     O2285   2.451       .  S
Zr2259     O2263   2.396       .  S
Zr2259     O2266   2.387   1_565  S
Zr2260     O2286   2.435       .  S
Zr2260     O2287   2.435       .  S
Zr2260     O2262   2.438       .  S
Zr2260     O2263   2.397       .  S
Zr2260     O2264   2.373   1_565  S
O2261      H2298   0.990       .  S
O2262      H2293   0.990       .  S
O2262      H2307   0.990       .  S
O2264      H2290   0.966       .  S
O2265     Zr2275   2.372       .  S
O2266     Zr2275   2.355       .  S
O2266      H2291   0.965       .  S
C2267      C2589   1.478       .  S
C2268      C2445   1.483       .  S
C2269      C2381   1.489       .  S
O2270      H2306   0.990       .  S
O2271      C2273   1.282       .  A
O2272      C2273   1.289       .  A
C2273      C2429   1.485       .  S
O2274     Zr2275   2.439       .  S
O2274      H2303   0.991       .  S
Zr2275     O2278   2.440       .  S
Zr2275     O2279   2.441       .  S
Zr2275     O2280   2.434       .  S
O2276      C2281   1.280       .  A
O2277      H2294   0.990       .  S
O2277      H2309   0.990       .  S
O2278      H2295   0.990       .  S
O2279      H2299   0.990       .  S
O2279      H2308   0.990       .  S
O2280      C2281   1.285       .  A
C2281      C2573   1.486       .  S
O2282      H2301   0.990       .  S
O2282      H2305   0.990       .  S
O2283      H2297   0.990       .  S
O2283      H2304   0.990       .  S
O2284      C2288   1.290       .  A
O2285      C2288   1.289   1_565  A
O2286      H2296   0.990       .  S
O2287      H2300   0.990   1_565  S
C2288      C2682   1.495       .  S
Zr2311     O2312   2.435       .  S
Zr2311     O2313   2.410       .  S
Zr2311     O2314   2.435       .  S
Zr2311     O2317   2.428       .  S
Zr2311     O2319   2.381       .  S
Zr2311     O2320   2.382       .  S
Zr2311     O2321   2.399   1_565  S
Zr2311     O2322   2.387       .  S
O2312      H2368   0.990       .  S
O2312      H2376   0.989       .  S
O2313      C2333   1.279       .  A
O2314      C2335   1.285       .  A
O2315     Zr2325   2.414       .  S
O2315      C2334   1.280       .  A
O2316     Zr2324   2.442       .  S
O2316      C2335   1.287   1_545  A
O2317      C2334   1.284       .  A
O2318     Zr2326   2.437       .  S
O2318      C2333   1.285       .  A
O2319     Zr2324   2.393   1_565  S
O2319     Zr2326   2.369       .  S
O2320     Zr2325   2.390       .  S
O2320     Zr2326   2.377       .  S
O2320      H2355   0.966       .  S
O2321     Zr2324   2.400       .  S
O2321     Zr2341   2.398       .  S
O2321      H2358   0.966       .  S
O2322     Zr2325   2.387       .  S
O2322     Zr2341   2.377   1_565  S
Zr2323     O2348   2.439       .  S
Zr2323     O2342   2.451       .  S
Zr2323     O2350   2.461       .  S
Zr2323     O2338   2.412       .  S
Zr2323     O2329   2.390   1_545  S
Zr2323     O2330   2.423       .  S
Zr2323     O2331   2.382       .  S
Zr2323     O2332   2.382       .  S
Zr2324     O2343   2.435       .  S
Zr2324     O2336   2.431       .  S
Zr2324     O2337   2.448       .  S
Zr2324     O2330   2.398       .  S
Zr2324     O2331   2.389       .  S
Zr2325     O2327   2.436       .  S
Zr2325     O2349   2.440       .  S
Zr2325     O2351   2.425       .  S
Zr2325     O2329   2.380       .  S
Zr2325     O2332   2.392   1_565  S
Zr2326     O2352   2.435       .  S
Zr2326     O2353   2.435       .  S
Zr2326     O2328   2.436       .  S
Zr2326     O2329   2.383       .  S
Zr2326     O2330   2.407   1_565  S
O2327      H2364   0.990       .  S
O2328      H2359   0.990       .  S
O2328      H2373   0.990       .  S
O2330      H2356   0.966       .  S
O2331     Zr2341   2.379       .  S
O2332     Zr2341   2.398       .  S
O2332      H2357   0.966       .  S
C2333      C2522   1.483       .  S
C2334      C2413   1.475       .  S
C2335      C3546   1.493       .  S
O2336      H2372   0.990       .  S
O2337      C2339   1.287       .  A
O2338      C2339   1.279       .  A
C2339      C2397   1.478       .  S
O2340     Zr2341   2.440       .  S
O2340      H2369   0.990       .  S
Zr2341     O2344   2.438       .  S
Zr2341     O2345   2.440       .  S
Zr2341     O2346   2.390       .  S
O2342      C2347   1.286       .  A
O2343      H2360   0.990       .  S
O2343      H2375   0.990       .  S
O2344      H2361   0.990       .  S
O2345      H2365   0.990       .  S
O2345      H2374   0.990   1_545  S
O2346      C2347   1.277       .  A
C2347      C2509   1.480       .  S
O2348      H2367   0.989       .  S
O2348      H2371   0.990       .  S
O2349      H2363   0.990       .  S
O2349      H2370   0.990       .  S
O2350      C2354   1.288       .  A
O2351      C2354   1.284   1_565  A
O2352      H2362   0.990       .  S
O2353      H2366   0.990   1_565  S
C2354      C2378   1.487       .  S
C2377      C2378   1.409   1_565  A
C2377      C2382   1.406   1_556  A
C2377      H2384   1.084       .  S
C2378      C2379   1.413       .  A
C2379      C2380   1.404   1_556  A
C2379      C2386   1.506       .  S
C2380      C2381   1.409   1_545  A
C2380      H2385   1.083       .  S
C2381      C2382   1.413       .  A
C2382      C2383   1.506       .  S
C2383      H2387   1.111   1_554  S
C2383      H2388   1.107       .  S
C2383      H2389   1.110       .  S
C2386      H2390   1.110       .  S
C2386      H2391   1.106       .  S
C2386      H2392   1.111       .  S
C2393      C2394   1.406       .  A
C2393      C2398   1.402       .  A
C2393      H2400   1.084       .  S
C2394      C2395   1.412       .  A
C2395      C2396   1.404       .  A
C2395      C2402   1.506       .  S
C2396      C2397   1.406       .  A
C2396      H2401   1.081       .  S
C2397      C2398   1.411       .  A
C2398      C2399   1.506       .  S
C2399      H2403   1.111       .  S
C2399      H2404   1.108       .  S
C2399      H2405   1.111       .  S
C2402      H2406   1.110       .  S
C2402      H2407   1.110       .  S
C2402      H2408   1.111       .  S
C2409      C2410   1.404       .  A
C2409      C2414   1.399       .  A
C2409      H2416   1.084       .  S
C2410      C2411   1.420       .  A
C2411      C2412   1.401       .  A
C2411      C2418   1.510       .  S
C2412      C2413   1.400       .  A
C2412      H2417   1.081       .  S
C2413      C2414   1.416       .  A
C2414      C2415   1.510       .  S
C2415      H2419   1.111       .  S
C2415      H2420   1.110       .  S
C2415      H2421   1.109       .  S
C2418      H2422   1.110       .  S
C2418      H2423   1.110       .  S
C2418      H2424   1.111       .  S
C2425      C2426   1.399       .  A
C2425      C2430   1.399       .  A
C2425      H2432   1.085       .  S
C2426      C2427   1.413       .  A
C2427      C2428   1.407       .  A
C2427      C2434   1.507       .  S
C2428      C2429   1.407       .  A
C2428      H2433   1.084       .  S
C2429      C2430   1.419       .  A
C2430      C2431   1.508       .  S
C2431      H2435   1.111       .  S
C2431      H2436   1.111       .  S
C2431      H2437   1.108       .  S
C2434      H2438   1.110       .  S
C2434      H2439   1.111       .  S
C2434      H2440   1.111       .  S
C2441      C2442   1.404       .  A
C2441      C2446   1.401       .  A
C2441      H2448   1.085       .  S
C2442      C2443   1.409       .  A
C2443      C2444   1.407       .  A
C2443      C2450   1.505       .  S
C2444      C2445   1.409       .  A
C2444      H2449   1.084       .  S
C2445      C2446   1.415       .  A
C2446      C2447   1.509       .  S
C2447      H2451   1.111       .  S
C2447      H2452   1.109       .  S
C2447      H2453   1.111       .  S
C2450      H2454   1.110       .  S
C2450      H2455   1.110       .  S
C2450      H2456   1.111       .  S
C2457      C2458   1.406       .  A
C2457      C2462   1.406   1_554  A
C2457      H2464   1.084       .  S
C2458      C2459   1.416   1_455  A
C2459      C2460   1.408   1_554  A
C2459      C2466   1.508       .  S
C2460      C2461   1.408   1_655  A
C2460      H2465   1.084       .  S
C2461      C2462   1.418       .  A
C2462      C2463   1.507       .  S
C2463      H2467   1.111       .  S
C2463      H2468   1.106       .  S
C2463      H2469   1.110       .  S
C2466      H2470   1.110   1_655  S
C2466      H2471   1.108       .  S
C2466      H2472   1.111       .  S
C2473      C2474   1.409       .  A
C2473      C2478   1.403       .  A
C2473      H2480   1.084       .  S
C2474      C2475   1.414       .  A
C2475      C2476   1.408       .  A
C2475      C2482   1.505       .  S
C2476      C2477   1.408       .  A
C2476      H2481   1.082       .  S
C2477      C2478   1.413       .  A
C2478      C2479   1.507       .  S
C2479      H2483   1.111       .  S
C2479      H2484   1.108       .  S
C2479      H2485   1.111       .  S
C2482      H2486   1.109       .  S
C2482      H2487   1.109       .  S
C2482      H2488   1.111       .  S
C2489      C2490   1.400       .  A
C2489      C2494   1.398       .  A
C2489      H2496   1.085       .  S
C2490      C2491   1.411       .  A
C2491      C2492   1.404       .  A
C2491      C2498   1.507       .  S
C2492      C2493   1.403       .  A
C2492      H2497   1.084       .  S
C2493      C2494   1.414       .  A
C2494      C2495   1.509       .  S
C2495      H2499   1.110       .  S
C2495      H2500   1.108       .  S
C2495      H2501   1.111       .  S
C2498      H2502   1.110       .  S
C2498      H2503   1.110       .  S
C2498      H2504   1.111       .  S
C2505      C2506   1.405       .  A
C2505      C2510   1.403       .  A
C2505      H2512   1.082       .  S
C2506      C2507   1.413       .  A
C2507      C2508   1.400       .  A
C2507      C2514   1.507       .  S
C2508      C2509   1.406       .  A
C2508      H2513   1.084       .  S
C2509      C2510   1.414       .  A
C2510      C2511   1.505       .  S
C2511      H2515   1.111       .  S
C2511      H2516   1.109       .  S
C2511      H2517   1.109       .  S
C2514      H2518   1.109       .  S
C2514      H2519   1.110       .  S
C2514      H2520   1.111       .  S
C2521      C2522   1.404       .  A
C2521      C2526   1.402       .  A
C2521      H2528   1.084       .  S
C2522      C2523   1.421       .  A
C2523      C2524   1.401       .  A
C2523      C2530   1.508       .  S
C2524      C2525   1.400       .  A
C2524      H2529   1.085       .  S
C2525      C2526   1.414       .  A
C2526      C2527   1.508       .  S
C2527      H2531   1.111       .  S
C2527      H2532   1.111       .  S
C2527      H2533   1.108       .  S
C2530      H2534   1.110       .  S
C2530      H2535   1.110       .  S
C2530      H2536   1.111       .  S
C2537      C2538   1.400       .  A
C2537      C2542   1.404       .  A
C2537      H2544   1.084       .  S
C2538      C2539   1.418       .  A
C2539      C2540   1.401       .  A
C2539      C2546   1.509       .  S
C2540      C2541   1.403       .  A
C2540      H2545   1.084       .  S
C2541      C2542   1.422       .  A
C2542      C2543   1.505       .  S
C2543      H2547   1.111       .  S
C2543      H2548   1.109       .  S
C2543      H2549   1.110       .  S
C2546      H2550   1.109       .  S
C2546      H2551   1.111       .  S
C2546      H2552   1.111       .  S
C2553      C2554   1.402       .  A
C2553      C2558   1.405       .  A
C2553      H2560   1.084       .  S
C2554      C2555   1.420       .  A
C2555      C2556   1.403       .  A
C2555      C2562   1.508       .  S
C2556      C2557   1.398       .  A
C2556      H2561   1.084       .  S
C2557      C2558   1.418       .  A
C2558      C2559   1.510       .  S
C2559      H2563   1.111       .  S
C2559      H2564   1.111       .  S
C2559      H2565   1.109       .  S
C2562      H2566   1.107       .  S
C2562      H2567   1.110       .  S
C2562      H2568   1.111       .  S
C2569      C2570   1.401       .  A
C2569      C2574   1.403       .  A
C2569      H2576   1.079       .  S
C2570      C2571   1.418       .  A
C2571      C2572   1.400       .  A
C2571      C2578   1.510       .  S
C2572      C2573   1.404       .  A
C2572      H2577   1.084       .  S
C2573      C2574   1.421       .  A
C2574      C2575   1.509       .  S
C2575      H2579   1.111       .  S
C2575      H2580   1.110       .  S
C2575      H2581   1.110       .  S
C2578      H2582   1.109       .  S
C2578      H2583   1.111       .  S
C2578      H2584   1.111       .  S
C2585      C2586   1.404       .  A
C2585      C2590   1.405       .  A
C2585      H2592   1.085       .  S
C2586      C2587   1.409       .  A
C2587      C2588   1.404       .  A
C2587      C2594   1.506       .  S
C2588      C2589   1.408       .  A
C2588      H2593   1.085       .  S
C2589      C2590   1.418       .  A
C2590      C2591   1.510       .  S
C2591      H2595   1.110       .  S
C2591      H2596   1.105       .  S
C2591      H2597   1.111       .  S
C2594      H2598   1.110       .  S
C2594      H2599   1.109       .  S
C2594      H2600   1.111       .  S
C2601      C2602   1.407       .  A
C2601      C2606   1.407   1_554  A
C2601      H2608   1.083       .  S
C2602      C2603   1.418       .  A
C2603      C2604   1.410   1_554  A
C2603      C2610   1.508       .  S
C2604      C2605   1.410       .  A
C2604      H2609   1.084       .  S
C2605      C2606   1.421       .  A
C2606      C2607   1.508       .  S
C2607      H2611   1.111       .  S
C2607      H2612   1.108       .  S
C2607      H2613   1.110       .  S
C2610      H2614   1.110       .  S
C2610      H2615   1.108       .  S
C2610      H2616   1.111       .  S
C2617      C2618   1.408       .  A
C2617      C2622   1.406       .  A
C2617      H2624   1.084       .  S
C2618      C2619   1.418       .  A
C2619      C2620   1.409       .  A
C2619      C2626   1.507       .  S
C2620      C2621   1.406       .  A
C2620      H2625   1.084       .  S
C2621      C2622   1.416       .  A
C2622      C2623   1.507       .  S
C2623      H2627   1.111       .  S
C2623      H2628   1.109       .  S
C2623      H2629   1.110       .  S
C2626      H2630   1.110       .  S
C2626      H2631   1.109       .  S
C2626      H2632   1.111       .  S
C2633      C2634   1.404       .  A
C2633      C2638   1.403       .  A
C2633      H2640   1.084       .  S
C2634      C2635   1.418       .  A
C2635      C2636   1.411       .  A
C2635      C2642   1.508       .  S
C2636      C2637   1.407       .  A
C2636      H2641   1.084       .  S
C2637      C2638   1.419       .  A
C2638      C2639   1.510       .  S
C2639      H2643   1.111       .  S
C2639      H2644   1.108       .  S
C2639      H2645   1.110       .  S
C2642      H2646   1.110       .  S
C2642      H2647   1.108       .  S
C2642      H2648   1.111       .  S
C2649      C2650   1.410       .  A
C2649      C2654   1.407       .  A
C2649      H2656   1.084       .  S
C2650      C2651   1.412       .  A
C2651      C2652   1.401       .  A
C2651      C2658   1.507       .  S
C2652      C2653   1.409       .  A
C2652      H2657   1.084       .  S
C2653      C2654   1.413       .  A
C2654      C2655   1.506       .  S
C2655      H2659   1.111       .  S
C2655      H2660   1.110       .  S
C2655      H2661   1.109       .  S
C2658      H2662   1.110       .  S
C2658      H2663   1.108       .  S
C2658      H2664   1.111       .  S
C2665      C2666   1.403       .  A
C2665      C2670   1.399       .  A
C2665      H2672   1.084       .  S
C2666      C2667   1.423       .  A
C2667      C2668   1.404       .  A
C2667      C2674   1.505       .  S
C2668      C2669   1.400       .  A
C2668      H2673   1.082       .  S
C2669      C2670   1.421       .  A
C2670      C2671   1.511       .  S
C2671      H2675   1.111       .  S
C2671      H2676   1.109       .  S
C2671      H2677   1.111       .  S
C2674      H2678   1.107       .  S
C2674      H2679   1.109       .  S
C2674      H2680   1.111       .  S
C2681      C2682   1.403       .  A
C2681      C2686   1.407       .  A
C2681      H2688   1.084       .  S
C2682      C2683   1.420       .  A
C2683      C2684   1.411       .  A
C2683      C2690   1.507       .  S
C2684      C2685   1.405       .  A
C2684      H2689   1.084       .  S
C2685      C2686   1.422       .  A
C2686      C2687   1.510       .  S
C2687      H2691   1.111       .  S
C2687      H2692   1.111       .  S
C2687      H2693   1.109       .  S
C2690      H2694   1.109   1_545  S
C2690      H2695   1.111       .  S
C2690      H2696   1.111       .  S
C2697      C2698   1.407       .  A
C2697      C2702   1.409       .  A
C2697      H2704   1.084       .  S
C2698      C2699   1.416       .  A
C2699      C2700   1.405       .  A
C2699      C2706   1.509       .  S
C2700      C2701   1.406       .  A
C2700      H2705   1.084       .  S
C2701      C2702   1.415       .  A
C2702      C2703   1.507       .  S
C2703      H2707   1.111       .  S
C2703      H2708   1.110       .  S
C2703      H2709   1.109       .  S
C2706      H2710   1.109       .  S
C2706      H2711   1.111       .  S
C2706      H2712   1.111       .  S
C2713      C2714   1.404       .  A
C2713      C2718   1.399       .  A
C2713      H2720   1.084       .  S
C2714      C2715   1.412       .  A
C2715      C2716   1.408       .  A
C2715      C2722   1.506       .  S
C2716      C2717   1.410       .  A
C2716      H2721   1.084       .  S
C2717      C2718   1.416       .  A
C2718      C2719   1.509       .  S
C2719      H2723   1.111       .  S
C2719      H2724   1.111       .  S
C2719      H2725   1.109       .  S
C2722      H2726   1.110       .  S
C2722      H2727   1.110       .  S
C2722      H2728   1.111       .  S
C2729      C2730   1.407       .  A
C2729      C2734   1.399       .  A
C2729      H2736   1.084       .  S
C2730      C2731   1.417       .  A
C2731      C2732   1.403       .  A
C2731      C2738   1.508       .  S
C2732      C2733   1.405       .  A
C2732      H2737   1.084       .  S
C2733      C2734   1.413       .  A
C2734      C2735   1.506   1_455  S
C2735      H2739   1.111   1_655  S
C2735      H2740   1.109       .  S
C2735      H2741   1.109       .  S
C2738      H2742   1.109       .  S
C2738      H2743   1.111       .  S
C2738      H2744   1.111       .  S
C2745      C2746   1.411       .  A
C2745      C2750   1.406       .  A
C2745      H2752   1.084       .  S
C2746      C2747   1.415       .  A
C2747      C2748   1.395       .  A
C2747      C2754   1.510       .  S
C2748      C2749   1.405       .  A
C2748      H2753   1.085       .  S
C2749      C2750   1.409       .  A
C2750      C2751   1.506       .  S
C2751      H2755   1.111       .  S
C2751      H2756   1.110       .  S
C2751      H2757   1.110       .  S
C2754      H2758   1.110       .  S
C2754      H2759   1.110       .  S
C2754      H2760   1.111       .  S
C2761      C2762   1.400       .  A
C2761      C2766   1.398       .  A
C2761      H2768   1.080       .  S
C2762      C2763   1.418       .  A
C2763      C2764   1.398       .  A
C2763      C2770   1.509       .  S
C2764      C2765   1.403       .  A
C2764      H2769   1.084       .  S
C2765      C2766   1.418       .  A
C2766      C2767   1.508       .  S
C2767      H2771   1.111       .  S
C2767      H2772   1.110       .  S
C2767      H2773   1.110       .  S
C2770      H2774   1.109       .  S
C2770      H2775   1.110       .  S
C2770      H2776   1.111       .  S
C2777      C2778   1.408       .  A
C2777      C2782   1.399       .  A
C2777      H2784   1.084       .  S
C2778      C2779   1.412       .  A
C2779      C2780   1.405       .  A
C2779      C2786   1.508   1_455  S
C2780      C2781   1.409       .  A
C2780      H2785   1.082       .  S
C2781      C2782   1.410       .  A
C2782      C2783   1.507       .  S
C2783      H2787   1.111       .  S
C2783      H2788   1.111       .  S
C2783      H2789   1.108       .  S
C2786      H2790   1.110       .  S
C2786      H2791   1.111       .  S
C2786      H2792   1.111   1_655  S
C2793      C2794   1.397       .  A
C2793      C2798   1.400       .  A
C2793      H2800   1.079       .  S
C2794      C2795   1.418       .  A
C2795      C2796   1.401       .  A
C2795      C2802   1.510       .  S
C2796      C2797   1.404       .  A
C2796      H2801   1.084       .  S
C2797      C2798   1.421       .  A
C2798      C2799   1.506       .  S
C2799      H2803   1.111       .  S
C2799      H2804   1.108       .  S
C2799      H2805   1.110       .  S
C2802      H2806   1.109       .  S
C2802      H2807   1.111       .  S
C2802      H2808   1.111       .  S
C2809      C2810   1.408       .  A
C2809      C2814   1.407       .  A
C2809      H2816   1.084       .  S
C2810      C2811   1.422       .  A
C2811      C2812   1.404       .  A
C2811      C2818   1.510       .  S
C2812      C2813   1.405       .  A
C2812      H2817   1.084       .  S
C2813      C2814   1.416       .  A
C2814      C2815   1.507       .  S
C2815      H2819   1.111       .  S
C2815      H2820   1.109       .  S
C2815      H2821   1.111       .  S
C2818      H2822   1.111       .  S
C2818      H2823   1.110       .  S
C2818      H2824   1.111       .  S
C2825      C2826   1.406       .  A
C2825      C2830   1.406       .  A
C2825      H2832   1.083       .  S
C2826      C2827   1.415       .  A
C2827      C2828   1.397       .  A
C2827      C2834   1.509       .  S
C2828      C2829   1.404       .  A
C2828      H2833   1.084       .  S
C2829      C2830   1.415       .  A
C2830      C2831   1.506       .  S
C2831      H2835   1.111       .  S
C2831      H2836   1.110   1_565  S
C2831      H2837   1.110       .  S
C2834      H2838   1.111       .  S
C2834      H2839   1.108       .  S
C2834      H2840   1.111       .  S
C2841      C2842   1.403       .  A
C2841      C2846   1.406       .  A
C2841      H2848   1.084       .  S
C2842      C2843   1.418       .  A
C2843      C2844   1.400       .  A
C2843      C2850   1.508       .  S
C2844      C2845   1.398       .  A
C2844      H2849   1.085       .  S
C2845      C2846   1.416       .  A
C2846      C2847   1.508       .  S
C2847      H2851   1.110       .  S
C2847      H2852   1.108       .  S
C2847      H2853   1.111       .  S
C2850      H2854   1.110       .  S
C2850      H2855   1.107       .  S
C2850      H2856   1.111       .  S
C2857      C2858   1.403       .  A
C2857      C2862   1.401       .  A
C2857      H2864   1.085       .  S
C2858      C2859   1.411       .  A
C2859      C2860   1.405       .  A
C2859      C2866   1.508       .  S
C2860      C2861   1.408       .  A
C2860      H2865   1.081       .  S
C2861      C2862   1.417       .  A
C2862      C2863   1.509       .  S
C2863      H2867   1.111       .  S
C2863      H2868   1.109       .  S
C2863      H2869   1.110       .  S
C2866      H2870   1.111       .  S
C2866      H2871   1.110       .  S
C2866      H2872   1.110       .  S
C2873      C2874   1.407       .  A
C2873      C2878   1.401       .  A
C2873      H2880   1.084       .  S
C2874      C2875   1.412       .  A
C2875      C2876   1.407       .  A
C2875      C2882   1.507       .  S
C2876      C2877   1.408       .  A
C2876      H2881   1.084       .  S
C2877      C2878   1.409       .  A
C2878      C2879   1.507       .  S
C2879      H2883   1.111       .  S
C2879      H2884   1.109       .  S
C2879      H2885   1.110       .  S
C2882      H2886   1.111       .  S
C2882      H2887   1.109       .  S
C2882      H2888   1.110       .  S
C2889      C2890   1.407       .  A
C2889      C2894   1.409       .  A
C2889      H2896   1.084       .  S
C2890      C2891   1.417       .  A
C2891      C2892   1.406       .  A
C2891      C2898   1.509       .  S
C2892      C2893   1.406       .  A
C2892      H2897   1.084       .  S
C2893      C2894   1.416       .  A
C2894      C2895   1.508       .  S
C2895      H2899   1.111       .  S
C2895      H2900   1.110       .  S
C2895      H2901   1.109       .  S
C2898      H2902   1.109       .  S
C2898      H2903   1.110       .  S
C2898      H2904   1.111       .  S
C2905      C2906   1.405   1_545  A
C2905      C2910   1.405       .  A
C2905      H2912   1.084       .  S
C2906      C2907   1.417       .  A
C2907      C2908   1.409       .  A
C2907      C2914   1.507       .  S
C2908      C2909   1.407   1_565  A
C2908      H2913   1.084       .  S
C2909      C2910   1.418       .  A
C2910      C2911   1.505       .  S
C2911      H2915   1.111       .  S
C2911      H2916   1.110       .  S
C2911      H2917   1.106       .  S
C2914      H2918   1.109       .  S
C2914      H2919   1.111       .  S
C2914      H2920   1.111       .  S
C2921      C2922   1.408       .  A
C2921      C2926   1.408       .  A
C2921      H2928   1.084       .  S
C2922      C2923   1.416       .  A
C2923      C2924   1.404       .  A
C2923      C2930   1.509       .  S
C2924      C2925   1.406       .  A
C2924      H2929   1.084       .  S
C2925      C2926   1.415       .  A
C2926      C2927   1.507       .  S
C2927      H2931   1.111       .  S
C2927      H2932   1.110       .  S
C2927      H2933   1.109       .  S
C2930      H2934   1.109       .  S
C2930      H2935   1.111       .  S
C2930      H2936   1.111       .  S
C2937      C2938   1.410       .  A
C2937      C2942   1.405       .  A
C2937      H2944   1.084       .  S
C2938      C2939   1.414       .  A
C2939      C2940   1.410       .  A
C2939      C2946   1.507   1_655  S
C2940      C2941   1.408       .  A
C2940      H2945   1.081       .  S
C2941      C2942   1.412       .  A
C2942      C2943   1.507       .  S
C2943      H2947   1.111       .  S
C2943      H2948   1.110       .  S
C2943      H2949   1.108       .  S
C2946      H2950   1.110       .  S
C2946      H2951   1.111       .  S
C2946      H2952   1.111   1_455  S
C2953      C2954   1.401       .  A
C2953      C2958   1.401       .  A
C2953      H2960   1.085       .  S
C2954      C2955   1.415       .  A
C2955      C2956   1.410       .  A
C2955      C2962   1.507       .  S
C2956      C2957   1.409       .  A
C2956      H2961   1.084       .  S
C2957      C2958   1.421       .  A
C2958      C2959   1.509       .  S
C2959      H2963   1.111       .  S
C2959      H2964   1.111       .  S
C2959      H2965   1.108       .  S
C2962      H2966   1.109       .  S
C2962      H2967   1.111       .  S
C2962      H2968   1.111       .  S
C2969      C2970   1.409       .  A
C2969      C2974   1.401       .  A
C2969      H2976   1.084       .  S
C2970      C2971   1.415       .  A
C2971      C2972   1.408       .  A
C2971      C2978   1.505       .  S
C2972      C2973   1.409       .  A
C2972      H2977   1.083       .  S
C2973      C2974   1.413       .  A
C2974      C2975   1.508       .  S
C2975      H2979   1.111       .  S
C2975      H2980   1.109       .  S
C2975      H2981   1.110       .  S
C2978      H2982   1.109       .  S
C2978      H2983   1.109       .  S
C2978      H2984   1.111       .  S
C2985      C2986   1.399       .  A
C2985      C2990   1.401       .  A
C2985      H2992   1.078       .  S
C2986      C2987   1.415       .  A
C2987      C2988   1.402       .  A
C2987      C2994   1.508       .  S
C2988      C2989   1.403       .  A
C2988      H2993   1.084       .  S
C2989      C2990   1.417       .  A
C2990      C2991   1.509   1_655  S
C2991      H2995   1.110       .  S
C2991      H2996   1.109       .  S
C2991      H2997   1.111       .  S
C2994      H2998   1.111       .  S
C2994      H2999   1.108       .  S
C2994      H3000   1.111       .  S
C3001      C3002   1.410       .  A
C3001      C3006   1.414       .  A
C3001      H3008   1.084       .  S
C3002      C3003   1.415       .  A
C3003      C3004   1.405       .  A
C3003      C3010   1.506       .  S
C3004      C3005   1.408       .  A
C3004      H3009   1.084       .  S
C3005      C3006   1.418       .  A
C3006      C3007   1.506       .  S
C3007      H3011   1.111       .  S
C3007      H3012   1.107       .  S
C3007      H3013   1.110       .  S
C3010      H3014   1.110       .  S
C3010      H3015   1.105       .  S
C3010      H3016   1.111       .  S
C3017      C3018   1.404       .  A
C3017      C3022   1.406       .  A
C3017      H3024   1.084       .  S
C3018      C3019   1.421   1_455  A
C3019      C3020   1.412       .  A
C3019      C3026   1.507       .  S
C3020      C3021   1.406       .  A
C3020      H3025   1.084       .  S
C3021      C3022   1.420   1_655  A
C3022      C3023   1.509       .  S
C3023      H3027   1.111       .  S
C3023      H3028   1.109       .  S
C3023      H3029   1.111       .  S
C3026      H3030   1.111       .  S
C3026      H3031   1.109   1_655  S
C3026      H3032   1.111       .  S
C3033      C3034   1.409       .  A
C3033      C3038   1.401       .  A
C3033      H3040   1.084       .  S
C3034      C3035   1.414       .  A
C3035      C3036   1.407       .  A
C3035      C3042   1.506   1_545  S
C3036      C3037   1.410       .  A
C3036      H3041   1.084       .  S
C3037      C3038   1.412       .  A
C3038      C3039   1.507       .  S
C3039      H3043   1.111       .  S
C3039      H3044   1.110       .  S
C3039      H3045   1.109       .  S
C3042      H3046   1.110       .  S
C3042      H3047   1.108       .  S
C3042      H3048   1.111   1_565  S
C3049      C3050   1.404       .  A
C3049      C3054   1.401       .  A
C3049      H3056   1.084       .  S
C3050      C3051   1.413       .  A
C3051      C3052   1.406       .  A
C3051      C3058   1.508       .  S
C3052      C3053   1.410       .  A
C3052      H3057   1.084       .  S
C3053      C3054   1.418       .  A
C3054      C3055   1.509       .  S
C3055      H3059   1.111       .  S
C3055      H3060   1.110       .  S
C3055      H3061   1.109       .  S
C3058      H3062   1.110       .  S
C3058      H3063   1.111       .  S
C3058      H3064   1.111       .  S
C3065      C3066   1.405       .  A
C3065      C3070   1.401       .  A
C3065      H3072   1.085       .  S
C3066      C3067   1.409       .  A
C3067      C3068   1.407       .  A
C3067      C3074   1.506       .  S
C3068      C3069   1.408       .  A
C3068      H3073   1.084       .  S
C3069      C3070   1.412       .  A
C3070      C3071   1.508       .  S
C3071      H3075   1.111       .  S
C3071      H3076   1.109       .  S
C3071      H3077   1.111   1_545  S
C3074      H3078   1.111       .  S
C3074      H3079   1.110       .  S
C3074      H3080   1.111       .  S
C3081      C3082   1.400       .  A
C3081      C3086   1.404       .  A
C3081      H3088   1.082       .  S
C3082      C3083   1.412       .  A
C3083      C3084   1.401       .  A
C3083      C3090   1.508       .  S
C3084      C3085   1.404       .  A
C3084      H3089   1.084       .  S
C3085      C3086   1.417       .  A
C3086      C3087   1.506       .  S
C3087      H3091   1.111       .  S
C3087      H3092   1.111       .  S
C3087      H3093   1.109       .  S
C3090      H3094   1.109       .  S
C3090      H3095   1.111       .  S
C3090      H3096   1.111       .  S
C3097      C3098   1.398       .  A
C3097      C3102   1.401       .  A
C3097      H3104   1.082   1_655  S
C3098      C3099   1.416       .  A
C3099      C3100   1.403       .  A
C3099      C3106   1.509       .  S
C3100      C3101   1.403       .  A
C3100      H3105   1.084       .  S
C3101      C3102   1.418       .  A
C3102      C3103   1.505   1_545  S
C3103      H3107   1.111   1_565  S
C3103      H3108   1.110       .  S
C3103      H3109   1.111       .  S
C3106      H3110   1.111       .  S
C3106      H3111   1.109       .  S
C3106      H3112   1.111       .  S
C3113      C3114   1.407       .  A
C3113      C3118   1.408       .  A
C3113      H3120   1.083       .  S
C3114      C3115   1.413       .  A
C3115      C3116   1.402       .  A
C3115      C3122   1.506       .  S
C3116      C3117   1.408       .  A
C3116      H3121   1.084       .  S
C3117      C3118   1.415       .  A
C3118      C3119   1.506       .  S
C3119      H3123   1.111       .  S
C3119      H3124   1.110       .  S
C3119      H3125   1.109       .  S
C3122      H3126   1.108       .  S
C3122      H3127   1.110       .  S
C3122      H3128   1.111       .  S
C3129      C3130   1.405       .  A
C3129      C3134   1.405       .  A
C3129      H3136   1.084       .  S
C3130      C3131   1.423       .  A
C3131      C3132   1.404       .  A
C3131      C3138   1.508       .  S
C3132      C3133   1.400       .  A
C3132      H3137   1.083   1_545  S
C3133      C3134   1.418       .  A
C3134      C3135   1.509       .  S
C3135      H3139   1.111       .  S
C3135      H3140   1.111       .  S
C3135      H3141   1.109       .  S
C3138      H3142   1.110       .  S
C3138      H3143   1.109       .  S
C3138      H3144   1.111       .  S
C3145      C3146   1.409       .  A
C3145      C3150   1.399       .  A
C3145      H3152   1.084       .  S
C3146      C3147   1.412       .  A
C3147      C3148   1.404       .  A
C3147      C3154   1.505       .  S
C3148      C3149   1.407       .  A
C3148      H3153   1.083       .  S
C3149      C3150   1.410       .  A
C3150      C3151   1.508       .  S
C3151      H3155   1.111       .  S
C3151      H3156   1.109       .  S
C3151      H3157   1.110       .  S
C3154      H3158   1.110       .  S
C3154      H3159   1.109       .  S
C3154      H3160   1.111       .  S
C3161      C3162   1.408       .  A
C3161      C3166   1.410       .  A
C3161      H3168   1.084       .  S
C3162      C3163   1.417       .  A
C3163      C3164   1.406       .  A
C3163      C3170   1.509       .  S
C3164      C3165   1.407       .  A
C3164      H3169   1.084       .  S
C3165      C3166   1.417       .  A
C3166      C3167   1.508       .  S
C3167      H3171   1.111       .  S
C3167      H3172   1.110       .  S
C3167      H3173   1.109       .  S
C3170      H3174   1.109       .  S
C3170      H3175   1.110       .  S
C3170      H3176   1.111       .  S
C3177      C3178   1.405       .  A
C3177      C3182   1.407       .  A
C3177      H3184   1.084       .  S
C3178      C3179   1.418       .  A
C3179      C3180   1.410       .  A
C3179      C3186   1.507       .  S
C3180      C3181   1.407       .  A
C3180      H3185   1.084       .  S
C3181      C3182   1.423       .  A
C3182      C3183   1.510       .  S
C3183      H3187   1.111       .  S
C3183      H3188   1.109       .  S
C3183      H3189   1.110       .  S
C3186      H3190   1.111       .  S
C3186      H3191   1.109       .  S
C3186      H3192   1.111       .  S
C3193      C3194   1.406       .  A
C3193      C3198   1.408       .  A
C3193      H3200   1.084       .  S
C3194      C3195   1.423       .  A
C3195      C3196   1.404       .  A
C3195      C3202   1.510       .  S
C3196      C3197   1.404       .  A
C3196      H3201   1.084       .  S
C3197      C3198   1.419       .  A
C3198      C3199   1.507   1_455  S
C3199      H3203   1.111       .  S
C3199      H3204   1.109       .  S
C3199      H3205   1.110   1_655  S
C3202      H3206   1.109       .  S
C3202      H3207   1.110       .  S
C3202      H3208   1.111       .  S
C3209      C3210   1.409   1_455  A
C3209      C3214   1.409       .  A
C3209      H3216   1.084       .  S
C3210      C3211   1.415       .  A
C3211      C3212   1.406       .  A
C3211      C3218   1.509       .  S
C3212      C3213   1.408       .  A
C3212      H3217   1.084       .  S
C3213      C3214   1.415   1_655  A
C3214      C3215   1.507       .  S
C3215      H3219   1.111       .  S
C3215      H3220   1.110   1_455  S
C3215      H3221   1.108       .  S
C3218      H3222   1.109       .  S
C3218      H3223   1.111       .  S
C3218      H3224   1.111       .  S
C3225      C3226   1.405       .  A
C3225      C3230   1.403       .  A
C3225      H3232   1.085       .  S
C3226      C3227   1.413       .  A
C3227      C3228   1.403       .  A
C3227      C3234   1.510       .  S
C3228      C3229   1.406       .  A
C3228      H3233   1.078       .  S
C3229      C3230   1.415       .  A
C3230      C3231   1.508       .  S
C3231      H3235   1.111       .  S
C3231      H3236   1.111       .  S
C3231      H3237   1.109       .  S
C3234      H3238   1.110       .  S
C3234      H3239   1.105       .  S
C3234      H3240   1.110       .  S
C3241      C3242   1.401       .  A
C3241      C3246   1.402       .  A
C3241      H3248   1.082       .  S
C3242      C3243   1.420       .  A
C3243      C3244   1.403       .  A
C3243      C3250   1.508       .  S
C3244      C3245   1.400       .  A
C3244      H3249   1.084       .  S
C3245      C3246   1.416       .  A
C3246      C3247   1.510       .  S
C3247      H3251   1.111       .  S
C3247      H3252   1.111       .  S
C3247      H3253   1.109       .  S
C3250      H3254   1.107       .  S
C3250      H3255   1.110       .  S
C3250      H3256   1.111       .  S
C3257      C3258   1.407       .  A
C3257      C3262   1.407       .  A
C3257      H3264   1.084   1_565  S
C3258      C3259   1.423       .  A
C3259      C3260   1.403       .  A
C3259      C3266   1.511       .  S
C3260      C3261   1.403       .  A
C3260      H3265   1.084       .  S
C3261      C3262   1.418       .  A
C3262      C3263   1.507   1_565  S
C3263      H3267   1.111       .  S
C3263      H3268   1.110       .  S
C3263      H3269   1.110   1_545  S
C3266      H3270   1.111       .  S
C3266      H3271   1.110       .  S
C3266      H3272   1.111       .  S
C3273      C3274   1.409       .  A
C3273      C3278   1.408       .  A
C3273      H3280   1.084       .  S
C3274      C3275   1.416   1_565  A
C3275      C3276   1.403       .  A
C3275      C3282   1.509       .  S
C3276      C3277   1.408       .  A
C3276      H3281   1.083       .  S
C3277      C3278   1.416   1_545  A
C3278      C3279   1.508       .  S
C3279      H3283   1.111       .  S
C3279      H3284   1.110       .  S
C3279      H3285   1.108       .  S
C3282      H3286   1.109       .  S
C3282      H3287   1.110       .  S
C3282      H3288   1.111       .  S
C3289      C3290   1.408       .  A
C3289      C3294   1.403       .  A
C3289      H3296   1.085       .  S
C3290      C3291   1.416       .  A
C3291      C3292   1.404       .  A
C3291      C3298   1.509       .  S
C3292      C3293   1.405       .  A
C3292      H3297   1.085       .  S
C3293      C3294   1.411       .  A
C3294      C3295   1.507       .  S
C3295      H3299   1.111       .  S
C3295      H3300   1.109       .  S
C3295      H3301   1.110       .  S
C3298      H3302   1.111       .  S
C3298      H3303   1.104       .  S
C3298      H3304   1.110       .  S
C3305      C3306   1.408       .  A
C3305      C3310   1.406       .  A
C3305      H3312   1.084       .  S
C3306      C3307   1.416       .  A
C3307      C3308   1.402       .  A
C3307      C3314   1.508       .  S
C3308      C3309   1.403       .  A
C3308      H3313   1.084       .  S
C3309      C3310   1.415       .  A
C3310      C3311   1.509       .  S
C3311      H3315   1.111       .  S
C3311      H3316   1.111       .  S
C3311      H3317   1.110       .  S
C3314      H3318   1.109       .  S
C3314      H3319   1.110       .  S
C3314      H3320   1.111       .  S
C3321      C3322   1.411       .  A
C3321      C3326   1.408       .  A
C3321      H3328   1.084       .  S
C3322      C3323   1.415       .  A
C3323      C3324   1.398       .  A
C3323      C3330   1.510       .  S
C3324      C3325   1.407       .  A
C3324      H3329   1.084       .  S
C3325      C3326   1.411       .  A
C3326      C3327   1.506       .  S
C3327      H3331   1.111       .  S
C3327      H3332   1.110       .  S
C3327      H3333   1.110       .  S
C3330      H3334   1.109       .  S
C3330      H3335   1.110       .  S
C3330      H3336   1.111       .  S
C3337      C3338   1.405       .  A
C3337      C3342   1.400       .  A
C3337      H3344   1.084       .  S
C3338      C3339   1.417       .  A
C3339      C3340   1.404       .  A
C3339      C3346   1.506       .  S
C3340      C3341   1.403       .  A
C3340      H3345   1.084       .  S
C3341      C3342   1.415       .  A
C3342      C3343   1.508       .  S
C3343      H3347   1.111       .  S
C3343      H3348   1.108       .  S
C3343      H3349   1.111       .  S
C3346      H3350   1.109       .  S
C3346      H3351   1.110       .  S
C3346      H3352   1.111       .  S
C3353      C3354   1.398       .  A
C3353      C3358   1.400       .  A
C3353      H3360   1.085       .  S
C3354      C3355   1.418       .  A
C3355      C3356   1.405       .  A
C3355      C3362   1.507       .  S
C3356      C3357   1.403       .  A
C3356      H3361   1.084       .  S
C3357      C3358   1.423       .  A
C3358      C3359   1.508       .  S
C3359      H3363   1.111       .  S
C3359      H3364   1.108       .  S
C3359      H3365   1.110       .  S
C3362      H3366   1.110       .  S
C3362      H3367   1.108       .  S
C3362      H3368   1.111       .  S
C3369      C3370   1.404       .  A
C3369      C3374   1.401       .  A
C3369      H3376   1.084       .  S
C3370      C3371   1.410       .  A
C3371      C3372   1.400       .  A
C3371      C3378   1.501       .  S
C3372      C3373   1.405       .  A
C3372      H3377   1.084       .  S
C3373      C3374   1.414       .  A
C3374      C3375   1.508       .  S
C3375      H3379   1.111       .  S
C3375      H3380   1.110       .  S
C3375      H3381   1.109       .  S
C3378      H3382   1.110       .  S
C3378      H3383   1.110       .  S
C3378      H3384   1.110       .  S
C3385      C3386   1.404       .  A
C3385      C3390   1.405       .  A
C3385      H3392   1.084       .  S
C3386      C3387   1.418       .  A
C3387      C3388   1.407       .  A
C3387      C3394   1.506       .  S
C3388      C3389   1.406       .  A
C3388      H3393   1.084       .  S
C3389      C3390   1.424       .  A
C3390      C3391   1.511       .  S
C3391      H3395   1.111       .  S
C3391      H3396   1.111       .  S
C3391      H3397   1.110       .  S
C3394      H3398   1.109       .  S
C3394      H3399   1.110       .  S
C3394      H3400   1.111       .  S
C3401      C3402   1.406       .  A
C3401      C3406   1.405       .  A
C3401      H3408   1.084       .  S
C3402      C3403   1.412       .  A
C3403      C3404   1.398       .  A
C3403      C3410   1.509       .  S
C3404      C3405   1.404       .  A
C3404      H3409   1.085       .  S
C3405      C3406   1.413       .  A
C3406      C3407   1.507       .  S
C3407      H3411   1.111       .  S
C3407      H3412   1.110       .  S
C3407      H3413   1.111       .  S
C3410      H3414   1.111       .  S
C3410      H3415   1.109       .  S
C3410      H3416   1.111       .  S
C3417      C3418   1.406       .  A
C3417      C3422   1.396       .  A
C3417      H3424   1.083       .  S
C3418      C3419   1.419       .  A
C3419      C3420   1.405       .  A
C3419      C3426   1.507       .  S
C3420      C3421   1.405       .  A
C3420      H3425   1.083       .  S
C3421      C3422   1.416       .  A
C3422      C3423   1.510       .  S
C3423      H3427   1.111       .  S
C3423      H3428   1.111       .  S
C3423      H3429   1.109       .  S
C3426      H3430   1.109       .  S
C3426      H3431   1.110       .  S
C3426      H3432   1.111       .  S
C3433      C3434   1.409       .  A
C3433      C3438   1.411       .  A
C3433      H3440   1.084       .  S
C3434      C3435   1.416       .  A
C3435      C3436   1.401       .  A
C3435      C3442   1.509       .  S
C3436      C3437   1.404       .  A
C3436      H3441   1.085       .  S
C3437      C3438   1.412       .  A
C3438      C3439   1.506       .  S
C3439      H3443   1.111       .  S
C3439      H3444   1.110       .  S
C3439      H3445   1.111       .  S
C3442      H3446   1.111       .  S
C3442      H3447   1.109       .  S
C3442      H3448   1.111       .  S
C3449      C3450   1.403       .  A
C3449      C3454   1.400       .  A
C3449      H3456   1.084       .  S
C3450      C3451   1.420       .  A
C3451      C3452   1.405       .  A
C3451      C3458   1.509       .  S
C3452      C3453   1.403       .  A
C3452      H3457   1.084       .  S
C3453      C3454   1.415       .  A
C3454      C3455   1.509       .  S
C3455      H3459   1.111       .  S
C3455      H3460   1.110       .  S
C3455      H3461   1.109       .  S
C3458      H3462   1.110       .  S
C3458      H3463   1.110       .  S
C3458      H3464   1.111       .  S
C3465      C3466   1.410       .  A
C3465      C3470   1.410       .  A
C3465      H3472   1.084       .  S
C3466      C3467   1.411       .  A
C3467      C3468   1.404       .  A
C3467      C3474   1.508       .  S
C3468      C3469   1.410       .  A
C3468      H3473   1.083       .  S
C3469      C3470   1.413       .  A
C3470      C3471   1.506       .  S
C3471      H3475   1.111       .  S
C3471      H3476   1.108       .  S
C3471      H3477   1.110       .  S
C3474      H3478   1.111       .  S
C3474      H3479   1.107       .  S
C3474      H3480   1.111       .  S
C3481      C3482   1.403       .  A
C3481      C3486   1.405       .  A
C3481      H3488   1.084       .  S
C3482      C3483   1.418       .  A
C3483      C3484   1.407       .  A
C3483      C3490   1.508   1_455  S
C3484      C3485   1.405       .  A
C3484      H3489   1.084   1_455  S
C3485      C3486   1.422       .  A
C3486      C3487   1.511       .  S
C3487      H3491   1.111       .  S
C3487      H3492   1.109       .  S
C3487      H3493   1.111       .  S
C3490      H3494   1.111   1_655  S
C3490      H3495   1.109       .  S
C3490      H3496   1.111       .  S
C3497      C3498   1.411       .  A
C3497      C3502   1.408       .  A
C3497      H3504   1.084       .  S
C3498      C3499   1.412       .  A
C3499      C3500   1.405       .  A
C3499      C3506   1.506       .  S
C3500      C3501   1.409       .  A
C3500      H3505   1.083       .  S
C3501      C3502   1.411       .  A
C3502      C3503   1.505       .  S
C3503      H3507   1.111       .  S
C3503      H3508   1.107       .  S
C3503      H3509   1.110       .  S
C3506      H3510   1.110       .  S
C3506      H3511   1.106       .  S
C3506      H3512   1.111       .  S
C3513      C3514   1.406       .  A
C3513      C3518   1.407       .  A
C3513      H3520   1.084       .  S
C3514      C3515   1.411       .  A
C3515      C3516   1.404       .  A
C3515      C3522   1.507       .  S
C3516      C3517   1.409       .  A
C3516      H3521   1.084       .  S
C3517      C3518   1.415       .  A
C3518      C3519   1.508       .  S
C3519      H3523   1.111       .  S
C3519      H3524   1.109       .  S
C3519      H3525   1.111       .  S
C3522      H3526   1.110       .  S
C3522      H3527   1.109       .  S
C3522      H3528   1.111       .  S
C3529      C3530   1.400       .  A
C3529      C3534   1.398       .  A
C3529      H3536   1.085       .  S
C3530      C3531   1.415       .  A
C3531      C3532   1.407       .  A
C3531      C3538   1.508       .  S
C3532      C3533   1.407       .  A
C3532      H3537   1.084       .  S
C3533      C3534   1.421       .  A
C3534      C3535   1.509       .  S
C3535      H3539   1.111       .  S
C3535      H3540   1.110       .  S
C3535      H3541   1.109       .  S
C3538      H3542   1.109       .  S
C3538      H3543   1.111       .  S
C3538      H3544   1.111       .  S
C3545      C3546   1.407       .  A
C3545      C3550   1.410       .  A
C3545      H3552   1.084       .  S
C3546      C3547   1.417       .  A
C3547      C3548   1.401       .  A
C3547      C3554   1.505       .  S
C3548      C3549   1.404       .  A
C3548      H3553   1.082       .  S
C3549      C3550   1.418       .  A
C3550      C3551   1.507       .  S
C3551      H3555   1.111       .  S
C3551      H3556   1.109       .  S
C3551      H3557   1.110       .  S
C3554      H3558   1.110       .  S
C3554      H3559   1.106       .  S
C3554      H3560   1.111       .  S
C3561      C3562   1.398       .  A
C3561      C3566   1.397       .  A
C3561      H3568   1.084       .  S
C3562      C3563   1.418       .  A
C3563      C3564   1.406       .  A
C3563      C3570   1.506       .  S
C3564      C3565   1.407       .  A
C3564      H3569   1.084       .  S
C3565      C3566   1.423       .  A
C3566      C3567   1.508       .  S
C3567      H3571   1.111       .  S
C3567      H3572   1.109       .  S
C3567      H3573   1.108       .  S
C3570      H3574   1.109       .  S
C3570      H3575   1.109       .  S
C3570      H3576   1.111       .  S
C3577      C3578   1.407       .  A
C3577      C3582   1.400       .  A
C3577      H3584   1.085       .  S
C3578      C3579   1.409       .  A
C3579      C3580   1.405       .  A
C3579      C3586   1.506       .  S
C3580      C3581   1.410       .  A
C3580      H3585   1.084       .  S
C3581      C3582   1.412       .  A
C3582      C3583   1.508       .  S
C3583      H3587   1.111       .  S
C3583      H3588   1.111   1_655  S
C3583      H3589   1.109       .  S
C3586      H3590   1.110       .  S
C3586      H3591   1.110       .  S
C3586      H3592   1.111       .  S
C3593      C3594   1.407       .  A
C3593      C3598   1.405       .  A
C3593      H3600   1.084       .  S
C3594      C3595   1.418       .  A
C3595      C3596   1.408       .  A
C3595      C3602   1.506       .  S
C3596      C3597   1.409       .  A
C3596      H3601   1.084       .  S
C3597      C3598   1.419       .  A
C3598      C3599   1.505       .  S
C3599      H3603   1.111       .  S
C3599      H3604   1.110       .  S
C3599      H3605   1.108       .  S
C3602      H3606   1.108       .  S
C3602      H3607   1.109       .  S
C3602      H3608   1.111       .  S
C3609      C3610   1.406       .  A
C3609      C3614   1.405       .  A
C3609      H3616   1.084       .  S
C3610      C3611   1.418       .  A
C3611      C3612   1.398       .  A
C3611      C3618   1.509       .  S
C3612      C3613   1.400       .  A
C3612      H3617   1.085       .  S
C3613      C3614   1.416       .  A
C3614      C3615   1.508       .  S
C3615      H3619   1.111       .  S
C3615      H3620   1.110       .  S
C3615      H3621   1.106       .  S
C3618      H3622   1.110       .  S
C3618      H3623   1.108       .  S
C3618      H3624   1.111       .  S
C3625      C3626   1.402       .  A
C3625      C3630   1.407       .  A
C3625      H3632   1.084       .  S
C3626      C3627   1.418       .  A
C3627      C3628   1.402       .  A
C3627      C3634   1.508       .  S
C3628      C3629   1.399       .  A
C3628      H3633   1.084       .  S
C3629      C3630   1.419       .  A
C3630      C3631   1.508       .  S
C3631      H3635   1.111       .  S
C3631      H3636   1.108       .  S
C3631      H3637   1.109       .  S
C3634      H3638   1.107       .  S
C3634      H3639   1.111       .  S
C3634      H3640   1.111       .  S
C3641      C3642   1.400       .  A
C3641      C3646   1.398       .  A
C3641      H3648   1.085       .  S
C3642      C3643   1.418       .  A
C3643      C3644   1.408       .  A
C3643      C3650   1.506       .  S
C3644      C3645   1.401       .  A
C3644      H3649   1.084       .  S
C3645      C3646   1.415       .  A
C3646      C3647   1.509       .  S
C3647      H3651   1.111       .  S
C3647      H3652   1.108       .  S
C3647      H3653   1.107       .  S
C3650      H3654   1.107       .  S
C3650      H3655   1.110       .  S
C3650      H3656   1.111       .  S
C3657      C3658   1.406       .  A
C3657      C3662   1.402       .  A
C3657      H3664   1.085       .  S
C3658      C3659   1.412       .  A
C3659      C3660   1.402       .  A
C3659      C3666   1.509   1_545  S
C3660      C3661   1.408       .  A
C3660      H3665   1.085       .  S
C3661      C3662   1.414       .  A
C3662      C3663   1.508       .  S
C3663      H3667   1.111       .  S
C3663      H3668   1.110       .  S
C3663      H3669   1.109       .  S
C3666      H3670   1.110       .  S
C3666      H3671   1.106       .  S
C3666      H3672   1.111       .  S
C3673      C3674   1.410       .  A
C3673      C3678   1.413       .  A
C3673      H3680   1.083       .  S
C3674      C3675   1.425       .  A
C3675      C3676   1.405       .  A
C3675      C3682   1.508       .  S
C3676      C3677   1.406       .  A
C3676      H3681   1.083       .  S
C3677      C3678   1.424       .  A
C3678      C3679   1.508       .  S
C3679      H3683   1.111       .  S
C3679      H3684   1.110       .  S
C3679      H3685   1.110       .  S
C3682      H3686   1.108       .  S
C3682      H3687   1.110       .  S
C3682      H3688   1.111       .  S
C3689      C3690   1.409       .  A
C3689      C3694   1.405       .  A
C3689      H3696   1.083       .  S
C3690      C3691   1.414       .  A
C3691      C3692   1.409       .  A
C3691      C3698   1.505       .  S
C3692      C3693   1.410       .  A
C3692      H3697   1.084       .  S
C3693      C3694   1.414       .  A
C3694      C3695   1.506       .  S
C3695      H3699   1.111       .  S
C3695      H3700   1.110       .  S
C3695      H3701   1.106       .  S
C3698      H3702   1.106       .  S
C3698      H3703   1.110       .  S
C3698      H3704   1.111       .  S
C3705      C3706   1.403       .  A
C3705      C3710   1.406       .  A
C3705      H3712   1.084   1_655  S
C3706      C3707   1.417       .  A
C3707      C3708   1.404       .  A
C3707      C3714   1.507       .  S
C3708      C3709   1.400       .  A
C3708      H3713   1.084       .  S
C3709      C3710   1.415       .  A
C3710      C3711   1.508   1_545  S
C3711      H3715   1.111   1_565  S
C3711      H3716   1.109       .  S
C3711      H3717   1.111       .  S
C3714      H3718   1.111       .  S
C3714      H3719   1.107       .  S
C3714      H3720   1.111       .  S
C3721      C3722   1.410       .  A
C3721      C3726   1.404       .  A
C3721      H3728   1.083       .  S
C3722      C3723   1.419       .  A
C3723      C3724   1.403       .  A
C3723      C3730   1.510       .  S
C3724      C3725   1.406       .  A
C3724      H3729   1.084       .  S
C3725      C3726   1.414       .  A
C3726      C3727   1.509       .  S
C3727      H3731   1.111       .  S
C3727      H3732   1.111       .  S
C3727      H3733   1.110       .  S
C3730      H3734   1.109       .  S
C3730      H3735   1.110       .  S
C3730      H3736   1.111       .  S
C3737      C3738   1.409       .  A
C3737      C3742   1.400       .  A
C3737      H3744   1.084       .  S
C3738      C3739   1.413       .  A
C3739      C3740   1.405       .  A
C3739      C3746   1.507   1_545  S
C3740      C3741   1.406       .  A
C3740      H3745   1.085       .  S
C3741      C3742   1.409       .  A
C3742      C3743   1.507       .  S
C3743      H3747   1.111       .  S
C3743      H3748   1.109       .  S
C3743      H3749   1.110       .  S
C3746      H3750   1.111       .  S
C3746      H3751   1.109       .  S
C3746      H3752   1.111       .  S
C3753      C3754   1.409       .  A
C3753      C3758   1.402       .  A
C3753      H3760   1.084       .  S
C3754      C3755   1.417       .  A
C3755      C3756   1.401       .  A
C3755      C3762   1.509       .  S
C3756      C3757   1.404       .  A
C3756      H3761   1.084       .  S
C3757      C3758   1.413       .  A
C3758      C3759   1.509       .  S
C3759      H3763   1.111       .  S
C3759      H3764   1.110       .  S
C3759      H3765   1.110       .  S
C3762      H3766   1.109       .  S
C3762      H3767   1.110       .  S
C3762      H3768   1.111       .  S
C3769      C3770   1.408   1_565  A
C3769      C3774   1.402       .  A
C3769      H3776   1.084       .  S
C3770      C3771   1.419       .  A
C3771      C3772   1.410   1_545  A
C3771      C3778   1.508       .  S
C3772      C3773   1.409       .  A
C3772      H3777   1.084       .  S
C3773      C3774   1.418       .  A
C3774      C3775   1.508       .  S
C3775      H3779   1.111       .  S
C3775      H3780   1.109       .  S
C3775      H3781   1.109       .  S
C3778      H3782   1.110       .  S
C3778      H3783   1.110       .  S
C3778      H3784   1.111       .  S
C3785      C3786   1.407       .  A
C3785      C3790   1.402       .  A
C3785      H3792   1.084       .  S
C3786      C3787   1.409       .  A
C3787      C3788   1.407       .  A
C3787      C3794   1.505       .  S
C3788      C3789   1.409       .  A
C3788      H3793   1.084       .  S
C3789      C3790   1.412       .  A
C3790      C3791   1.507       .  S
C3791      H3795   1.111       .  S
C3791      H3796   1.110       .  S
C3791      H3797   1.106       .  S
C3794      H3798   1.109       .  S
C3794      H3799   1.110       .  S
C3794      H3800   1.111       .  S
C3801      C3802   1.405       .  A
C3801      C3806   1.406       .  A
C3801      H3808   1.084       .  S
C3802      C3803   1.418       .  A
C3803      C3804   1.410       .  A
C3803      C3810   1.507       .  S
C3804      C3805   1.407       .  A
C3804      H3809   1.084       .  S
C3805      C3806   1.420       .  A
C3806      C3807   1.510       .  S
C3807      H3811   1.111       .  S
C3807      H3812   1.109       .  S
C3807      H3813   1.111       .  S
C3810      H3814   1.111       .  S
C3810      H3815   1.109       .  S
C3810      H3816   1.111       .  S
C3817      C3818   1.399       .  A
C3817      C3822   1.403       .  A
C3817      H3824   1.084       .  S
C3818      C3819   1.418       .  A
C3819      C3820   1.406       .  A
C3819      C3826   1.509       .  S
C3820      C3821   1.402       .  A
C3820      H3825   1.084       .  S
C3821      C3822   1.419       .  A
C3822      C3823   1.508       .  S
C3823      H3827   1.111       .  S
C3823      H3828   1.106       .  S
C3823      H3829   1.111       .  S
C3826      H3830   1.110       .  S
C3826      H3831   1.109       .  S
C3826      H3832   1.111       .  S
C3833      C3834   1.406       .  A
C3833      C3838   1.398       .  A
C3833      H3840   1.084       .  S
C3834      C3835   1.412       .  A
C3835      C3836   1.404       .  A
C3835      C3842   1.503   1_455  S
C3836      C3837   1.409       .  A
C3836      H3841   1.082       .  S
C3837      C3838   1.418       .  A
C3838      C3839   1.510       .  S
C3839      H3843   1.111       .  S
C3839      H3844   1.109       .  S
C3839      H3845   1.109       .  S
C3842      H3846   1.109       .  S
C3842      H3847   1.110       .  S
C3842      H3848   1.108       .  S
C3849      C3850   1.408       .  A
C3849      C3854   1.404       .  A
C3849      H3856   1.084       .  S
C3850      C3851   1.420       .  A
C3851      C3852   1.410       .  A
C3851      C3858   1.507       .  S
C3852      C3853   1.408       .  A
C3852      H3857   1.084       .  S
C3853      C3854   1.419       .  A
C3854      C3855   1.508       .  S
C3855      H3859   1.111       .  S
C3855      H3860   1.109       .  S
C3855      H3861   1.109       .  S
C3858      H3862   1.110       .  S
C3858      H3863   1.110       .  S
C3858      H3864   1.111       .  S
C3865      C3866   1.399       .  A
C3865      C3870   1.402       .  A
C3865      H3872   1.085       .  S
C3866      C3867   1.418       .  A
C3867      C3868   1.407       .  A
C3867      C3874   1.504   1_455  S
C3868      C3869   1.403       .  A
C3868      H3873   1.083       .  S
C3869      C3870   1.423       .  A
C3870      C3871   1.509       .  S
C3871      H3875   1.111       .  S
C3871      H3876   1.110       .  S
C3871      H3877   1.108       .  S
C3874      H3878   1.107       .  S
C3874      H3879   1.109       .  S
C3874      H3880   1.111   1_655  S
C3881      C3882   1.404       .  A
C3881      C3886   1.403       .  A
C3881      H3888   1.084       .  S
C3882      C3883   1.413       .  A
C3883      C3884   1.405       .  A
C3883      C3890   1.509       .  S
C3884      C3885   1.410       .  A
C3884      H3889   1.084       .  S
C3885      C3886   1.418       .  A
C3886      C3887   1.509       .  S
C3887      H3891   1.111       .  S
C3887      H3892   1.109       .  S
C3887      H3893   1.110       .  S
C3890      H3894   1.111       .  S
C3890      H3895   1.110       .  S
C3890      H3896   1.111       .  S
C3897      C3898   1.408       .  A
C3897      C3902   1.408       .  A
C3897      H3904   1.084       .  S
C3898      C3899   1.420       .  A
C3899      C3900   1.405       .  A
C3899      C3906   1.509       .  S
C3900      C3901   1.407       .  A
C3900      H3905   1.083       .  S
C3901      C3902   1.418       .  A
C3902      C3903   1.508       .  S
C3903      H3907   1.111       .  S
C3903      H3908   1.110       .  S
C3903      H3909   1.108       .  S
C3906      H3910   1.109       .  S
C3906      H3911   1.110       .  S
C3906      H3912   1.111       .  S
C3913      C3914   1.404       .  A
C3913      C3918   1.407       .  A
C3913      H3920   1.084       .  S
C3914      C3915   1.419       .  A
C3915      C3916   1.412       .  A
C3915      C3922   1.507   1_655  S
C3916      C3917   1.407       .  A
C3916      H3921   1.084   1_655  S
C3917      C3918   1.420       .  A
C3918      C3919   1.509       .  S
C3919      H3923   1.111       .  S
C3919      H3924   1.109       .  S
C3919      H3925   1.111       .  S
C3922      H3926   1.111   1_455  S
C3922      H3927   1.109       .  S
C3922      H3928   1.111       .  S
C3929      C3930   1.409       .  A
C3929      C3934   1.401       .  A
C3929      H3936   1.080       .  S
C3930      C3931   1.416       .  A
C3931      C3932   1.399       .  A
C3931      C3938   1.509       .  S
C3932      C3933   1.405       .  A
C3932      H3937   1.084       .  S
C3933      C3934   1.410       .  A
C3934      C3935   1.506       .  S
C3935      H3939   1.110       .  S
C3935      H3940   1.109   1_565  S
C3935      H3941   1.110   1_565  S
C3938      H3942   1.110       .  S
C3938      H3943   1.109       .  S
C3938      H3944   1.111       .  S
C3945      C3946   1.399       .  A
C3945      C3950   1.402       .  A
C3945      H3952   1.084       .  S
C3946      C3947   1.420       .  A
C3947      C3948   1.404       .  A
C3947      C3954   1.508       .  S
C3948      C3949   1.402       .  A
C3948      H3953   1.083       .  S
C3949      C3950   1.423       .  A
C3950      C3951   1.508       .  S
C3951      H3955   1.111       .  S
C3951      H3956   1.108       .  S
C3951      H3957   1.110       .  S
C3954      H3958   1.109       .  S
C3954      H3959   1.107       .  S
C3954      H3960   1.111       .  S
C3961      C3962   1.405       .  A
C3961      C3966   1.401       .  A
C3961      H3968   1.084       .  S
C3962      C3963   1.414       .  A
C3963      C3964   1.407       .  A
C3963      C3970   1.505       .  S
C3964      C3965   1.410       .  A
C3964      H3969   1.082       .  S
C3965      C3966   1.419       .  A
C3966      C3967   1.510       .  S
C3967      H3971   1.111       .  S
C3967      H3972   1.110       .  S
C3967      H3973   1.109       .  S
C3970      H3974   1.109       .  S
C3970      H3975   1.109       .  S
C3970      H3976   1.110       .  S
C3977      C3978   1.400       .  A
C3977      C3982   1.401       .  A
C3977      H3984   1.085       .  S
C3978      C3979   1.419       .  A
C3979      C3980   1.410       .  A
C3979      C3986   1.506       .  S
C3980      C3981   1.402       .  A
C3980      H3985   1.084       .  S
C3981      C3982   1.415       .  A
C3982      C3983   1.509       .  S
C3983      H3987   1.111       .  S
C3983      H3988   1.109       .  S
C3983      H3989   1.107       .  S
C3986      H3990   1.107       .  S
C3986      H3991   1.110       .  S
C3986      H3992   1.111       .  S
C3993      C3994   1.408       .  A
C3993      C3998   1.414   1_655  A
C3993      H4000   1.084       .  S
C3994      C3995   1.419       .  A
C3995      C3996   1.406       .  A
C3995      C4002   1.507       .  S
C3996      C3997   1.408   1_655  A
C3996      H4001   1.084       .  S
C3997      C3998   1.422       .  A
C3998      C3999   1.507       .  S
C3999      H4003   1.111       .  S
C3999      H4004   1.110       .  S
C3999      H4005   1.110       .  S
C4002      H4006   1.109       .  S
C4002      H4007   1.110       .  S
C4002      H4008   1.111       .  S
C4009      C4010   1.401       .  A
C4009      C4014   1.400       .  A
C4009      H4016   1.084       .  S
C4010      C4011   1.421       .  A
C4011      C4012   1.404       .  A
C4011      C4018   1.510       .  S
C4012      C4013   1.401       .  A
C4012      H4017   1.084       .  S
C4013      C4014   1.418       .  A
C4014      C4015   1.509       .  S
C4015      H4019   1.111       .  S
C4015      H4020   1.110       .  S
C4015      H4021   1.109       .  S
C4018      H4022   1.110       .  S
C4018      H4023   1.110       .  S
C4018      H4024   1.111       .  S
C4025      C4026   1.402       .  A
C4025      C4030   1.406       .  A
C4025      H4032   1.083   1_455  S
C4026      C4027   1.422       .  A
C4027      C4028   1.399       .  A
C4027      C4034   1.508       .  S
C4028      C4029   1.398       .  A
C4028      H4033   1.084       .  S
C4029      C4030   1.419       .  A
C4030      C4031   1.506       .  S
C4031      H4035   1.111       .  S
C4031      H4036   1.106       .  S
C4031      H4037   1.110       .  S
C4034      H4038   1.110       .  S
C4034      H4039   1.108       .  S
C4034      H4040   1.111       .  S
C4041      C4042   1.405       .  A
C4041      C4046   1.408       .  A
C4041      H4048   1.084       .  S
C4042      C4043   1.415       .  A
C4043      C4044   1.398       .  A
C4043      C4050   1.508       .  S
C4044      C4045   1.400       .  A
C4044      H4049   1.085       .  S
C4045      C4046   1.414       .  A
C4046      C4047   1.507       .  S
C4047      H4051   1.111       .  S
C4047      H4052   1.110       .  S
C4047      H4053   1.110       .  S
C4050      H4054   1.107       .  S
C4050      H4055   1.111       .  S
C4050      H4056   1.110       .  S
C4057      C4058   1.400       .  A
C4057      C4062   1.406       .  A
C4057      H4064   1.084       .  S
C4058      C4059   1.417       .  A
C4059      C4060   1.406       .  A
C4059      C4066   1.507       .  S
C4060      C4061   1.401       .  A
C4060      H4065   1.082       .  S
C4061      C4062   1.421       .  A
C4062      C4063   1.507       .  S
C4063      H4067   1.111       .  S
C4063      H4068   1.110       .  S
C4063      H4069   1.106       .  S
C4066      H4070   1.108   1_565  S
C4066      H4071   1.110   1_565  S
C4066      H4072   1.111       .  S
C4073      C4074   1.410       .  A
C4073      C4078   1.410       .  A
C4073      H4080   1.084       .  S
C4074      C4075   1.417       .  A
C4075      C4076   1.406       .  A
C4075      C4082   1.507       .  S
C4076      C4077   1.407       .  A
C4076      H4081   1.083       .  S
C4077      C4078   1.418       .  A
C4078      C4079   1.508       .  S
C4079      H4083   1.111       .  S
C4079      H4084   1.110       .  S
C4079      H4085   1.109       .  S
C4082      H4086   1.106       .  S
C4082      H4087   1.110       .  S
C4082      H4088   1.111       .  S
C4089      C4090   1.405       .  A
C4089      C4094   1.407       .  A
C4089      H4096   1.084       .  S
C4090      C4091   1.418       .  A
C4091      C4092   1.403       .  A
C4091      C4098   1.510       .  S
C4092      C4093   1.403       .  A
C4092      H4097   1.084       .  S
C4093      C4094   1.416       .  A
C4094      C4095   1.508   1_545  S
C4095      H4099   1.111       .  S
C4095      H4100   1.111   1_565  S
C4095      H4101   1.109       .  S
C4098      H4102   1.109       .  S
C4098      H4103   1.111       .  S
C4098      H4104   1.111       .  S
