geometry optimzed in LAMMPS
_audit_creation_date              2020-12-01 
_audit_creation_method            'lammps2cif' 
_symmetry_space_group_name_H-M    'P1' 
_symmetry_Int_Tables_number       1 
_symmetry_cell_setting            triclinic 
loop_ 
_symmetry_equiv_pos_as_xyz 
  x,y,z 
_cell_length_a                    33.62887077 
_cell_length_b                    34.54652739679296 
_cell_length_c                    47.075107221399705 
_cell_angle_alpha                 90.00888743923969 
_cell_angle_beta                  89.84119019354893 
_cell_angle_gamma                 88.65546924185278 
loop_ 
_atom_site_label 
_atom_site_type_symbol 
_atom_site_fract_x 
_atom_site_fract_y 
_atom_site_fract_z 
_atom_site_charge 
Zn1        Zn  0.18366050  0.30484748  0.41727094     1.44900
Zn2        Zn  0.16640863  0.34084473  0.35596183     1.49400
Zn3        Zn  0.22119158  0.38869898  0.39862610     1.49100
Zn4        Zn  0.25389570  0.31152777  0.37300767     1.49500
O5          O  0.20545375  0.33694917  0.38651624    -1.84000
O6          O  0.12436259  0.29283178  0.41063858    -0.74600
O7          O  0.16051345  0.39659583  0.34283449    -0.74400
O8          O  0.21202279  0.39222744  0.44139214    -0.73900
O9          O  0.11407915  0.31755239  0.36761905    -0.74600
O10         O  0.19335756  0.33314917  0.45492762    -0.74200
O11         O  0.19522625  0.43065529  0.37400249    -0.74800
O12         O  0.30135165  0.34413085  0.37173933    -0.74200
O13         O  0.18518564  0.31021103  0.32165431    -0.75000
O14         O  0.27984436  0.39922772  0.39080341    -0.74300
O15         O  0.24660578  0.29298204  0.33399115    -0.74800
O16         O  0.26815877  0.26449953  0.39448857    -0.74700
O17         O  0.21250920  0.25180355  0.41790792    -0.74500
C18         C  0.10188407  0.29853026  0.38907599     0.77300
C19         C  0.17460223  0.42853420  0.35135767     0.77800
C20         C  0.20391024  0.36762417  0.46084054     0.76700
C21         C  0.30732821  0.37868731  0.37924555     0.77100
C22         C  0.21842688  0.29341703  0.31617148     0.78200
C23         C  0.24688306  0.24168093  0.40866090     0.77300
Zn24       Zn  0.29499682  0.10237136  0.08678405     1.49700
Zn25       Zn  0.34624243  0.15343899  0.13065973     1.49400
Zn26       Zn  0.32123851  0.19221987  0.07278397     1.49100
Zn27       Zn  0.25728367  0.17406755  0.11878651     1.49500
O28         O  0.30571672  0.15465964  0.10167058    -1.84000
O29         O  0.32889001  0.06097353  0.10954118    -0.74600
O30         O  0.39603345  0.17797745  0.11664004    -0.74400
O31         O  0.30394618  0.16928154  0.03564461    -0.73900
O32         O  0.35822749  0.09859544  0.14146192    -0.74600
O33         O  0.29518296  0.10573958  0.04213971    -0.74200
O34         O  0.38068778  0.20384165  0.07468478    -0.74800
O35         O  0.24385027  0.22710697  0.10689481    -0.74200
O36         O  0.32770471  0.18064725  0.16657027    -0.75000
O37         O  0.29179825  0.24449540  0.07762235    -0.74300
O38         O  0.26252771  0.17981603  0.16011817    -0.74800
O39         O  0.21088097  0.14171997  0.11258605    -0.74700
O40         O  0.23789059  0.08704180  0.09625485    -0.74500
C41         C  0.34983231  0.06523145  0.13209459     0.77300
C42         C  0.40569573  0.19685832  0.09451887     0.77800
C43         C  0.29426362  0.13608805  0.02624191     0.76700
C44         C  0.26073113  0.25268982  0.09219272     0.77100
C45         C  0.29234245  0.18644152  0.17563162     0.78200
C46         C  0.20788095  0.10658649  0.10540464     0.77300
Zn47       Zn  0.34498656  0.95978664  0.33769059     1.49700
Zn48       Zn  0.39868816  0.91406716  0.38325230     1.49400
Zn49       Zn  0.43532225  0.93016037  0.32228974     1.49100
Zn50       Zn  0.41905319  0.99882913  0.36583203     1.49500
O51         O  0.39909010  0.95011843  0.35190727    -1.84000
O52         O  0.30403110  0.92847908  0.35982703    -0.74600
O53         O  0.42465317  0.86393840  0.37199152    -0.74400
O54         O  0.40941367  0.94288880  0.28329965    -0.73900
O55         O  0.34261439  0.90497816  0.39450207    -0.74600
O56         O  0.34566042  0.95561763  0.29424349    -0.74200
O57         O  0.44801592  0.87106120  0.32816479    -0.74800
O58         O  0.46659308  0.01535051  0.34425000    -0.74200
O59         O  0.42677062  0.93380023  0.41823963    -0.75000
O60         O  0.48804535  0.95892331  0.32658037    -0.74300
O61         O  0.43856218  0.99406163  0.40553475    -0.74800
O62         O  0.37739525  0.04065788  0.36801353    -0.74700
O63         O  0.32558408  0.01414920  0.34741862    -0.74500
C64         C  0.30841413  0.91165268  0.38384190     0.77300
C65         C  0.44279968  0.85017605  0.35032734     0.77800
C66         C  0.37369185  0.95193466  0.27583600     0.76700
C67         C  0.49455970  0.99356938  0.33465802     0.77100
C68         C  0.44020945  0.96708829  0.42380065     0.78200
C69         C  0.34116014  0.04220958  0.36050680     0.77300
Zn70       Zn  0.61253425  0.02728457  0.60168334     1.49700
Zn71       Zn  0.61842101  0.08393923  0.65558422     1.49400
Zn72       Zn  0.53546015  0.06604495  0.62477965     1.49100
Zn73       Zn  0.58093635  0.99787849  0.65829930     1.49500
O74         O  0.58718448  0.04455722  0.63602202    -1.84000
O75         O  0.65349642  0.06358986  0.59129941    -0.74600
O76         O  0.58352989  0.13349131  0.66034769    -0.74400
O77         O  0.52854298  0.06791302  0.58199090    -0.73900
O78         O  0.66681659  0.09861517  0.62980041    -0.74600
O79         O  0.57360773  0.02272786  0.57019424    -0.74200
O80         O  0.52515236  0.11911104  0.64135252    -0.74800
O81         O  0.52451086  0.97956337  0.65582144    -0.74200
O82         O  0.63231246  0.06304218  0.69627648    -0.75000
O83         O  0.49274486  0.02983937  0.63614158    -0.74300
O84         O  0.59583933  0.00980184  0.69838807    -0.74800
O85         O  0.61649335  0.95305713  0.64444710    -0.74700
O86         O  0.64109136  0.97655938  0.60457915    -0.74500
C87         C  0.67416114  0.08841337  0.60405239     0.77300
C88         C  0.54753643  0.14278908  0.65404930     0.77800
C89         C  0.54289354  0.04324669  0.56443561     0.76700
C90         C  0.49282571  0.99564892  0.64621567     0.77100
C91         C  0.61784687  0.03463559  0.71026294     0.78200
C92         C  0.63868284  0.94946844  0.62257007     0.77300
Zn93       Zn  0.87938114  0.91500291  0.15714710     1.49700
Zn94       Zn  0.96168821  0.92504086  0.12331650     1.49400
Zn95       Zn  0.88858300  0.97614067  0.10584139     1.49100
Zn96       Zn  0.92975975  0.99432604  0.16108577     1.49500
O97         O  0.91411572  0.95171720  0.13755147    -1.84000
O98         O  0.90874773  0.86169337  0.16027169    -0.74600
O99         O  0.96552500  0.92646777  0.08052512    -0.74400
O100        O  0.84082965  0.94753470  0.09602898    -0.73900
O101        O  0.96615351  0.87122729  0.13802808    -0.74600
O102        O  0.82820036  0.90736071  0.13184554    -0.74200
O103        O  0.92483405  0.97685063  0.07292537    -0.74800
O104        O  0.89679038  0.04374079  0.15439262    -0.74200
O105        O  0.01083810  0.95225297  0.13436379    -0.75000
O106        O  0.87128821  0.03071040  0.11231762    -0.74300
O107        O  0.98768599  0.00674895  0.15396405    -0.74800
O108        O  0.91994083  0.97862856  0.20087610    -0.74700
O109        O  0.87181391  0.93501990  0.19915514    -0.74500
C110        C  0.94323940  0.84964606  0.15215925     0.77300
C111        C  0.95281994  0.95412557  0.06487230     0.77800
C112        C  0.81934663  0.92209167  0.10748907     0.76700
C113        C  0.87610094  0.05375253  0.13289774     0.77100
C114        C  0.01624632  0.98622783  0.14362890     0.78200
C115        C  0.89417610  0.95790188  0.21320966     0.77300
Zn116      Zn  0.07370146  0.99980385  0.86743025     1.49700
Zn117      Zn  0.14362035  0.04168110  0.83646274     1.49400
Zn118      Zn  0.05018312  0.06331195  0.82431443     1.49100
Zn119      Zn  0.08647655  0.08906697  0.88150822     1.49500
O120        O  0.08964138  0.04920055  0.85237797    -1.84000
O121        O  0.11760992  0.96053395  0.86962996    -0.74600
O122        O  0.14009758  0.04372682  0.79195758    -0.74400
O123        O  0.00027271  0.03182607  0.82957692    -0.73900
O124        O  0.16592452  0.98749779  0.84518907    -0.74600
O125        O  0.02736119  0.97774510  0.84702102    -0.74200
O126        O  0.07421973  0.04981661  0.78667865    -0.74800
O127        O  0.05671434  0.13772475  0.86796000    -0.74200
O128        O  0.18282811  0.07458085  0.86012939    -0.75000
O129        O  0.03325954  0.12000971  0.82602417    -0.74300
O130        O  0.14238354  0.10024775  0.89327509    -0.74800
O131        O  0.05825248  0.06927938  0.91655917    -0.74700
O132        O  0.05497636  0.00661857  0.90674422    -0.74500
C133        C  0.15269871  0.95941839  0.85967332     0.77300
C134        C  0.10877817  0.04287222  0.77633430     0.77800
C135        C  0.99763056  0.99650771  0.83698580     0.76700
C136        C  0.03684103  0.14534606  0.84548650     0.77100
C137        C  0.17725168  0.09260831  0.88375044     0.78200
C138        C  0.04920133  0.03493645  0.92351173     0.77300
Zn139      Zn  0.83593535  0.14621050  0.35941486     1.49700
Zn140      Zn  0.77617705  0.09556024  0.39854975     1.49400
Zn141      Zn  0.80918569  0.18029760  0.41894480     1.49100
Zn142      Zn  0.74543703  0.17222250  0.37114112     1.49500
O143        O  0.79246387  0.14779589  0.38723602    -1.84000
O144        O  0.84499691  0.09054739  0.34701903    -0.74600
O145        O  0.78007421  0.09241558  0.44209270    -0.74400
O146        O  0.86885509  0.19084105  0.41787069    -0.73900
O147        O  0.80712139  0.05477473  0.37533927    -0.74600
O148        O  0.88636595  0.17031331  0.37476019    -0.74200
O149        O  0.79442864  0.15281334  0.45524025    -0.74800
O150        O  0.72861919  0.22014068  0.39089814    -0.74200
O151        O  0.71843332  0.08381346  0.38740535    -0.75000
O152        O  0.78072560  0.23343210  0.41775500    -0.74300
O153        O  0.69850992  0.13911751  0.36799919    -0.74800
O154        O  0.75705204  0.18961045  0.33258443    -0.74700
O155        O  0.82092425  0.17698681  0.32413759    -0.74500
C156        C  0.83108720  0.05794157  0.35438209     0.77300
C157        C  0.78456137  0.11829691  0.46132638     0.77800
C158        C  0.89472929  0.18704495  0.39810503     0.76700
C159        C  0.74760652  0.24320770  0.40642374     0.77100
C160        C  0.69187439  0.10442719  0.37490113     0.78200
C161        C  0.78737999  0.19144123  0.31665807     0.77300
Zn162      Zn  0.66819112  0.37697523  0.09042257     1.49700
Zn163      Zn  0.69127893  0.29706960  0.12014437     1.49400
Zn164      Zn  0.75331354  0.33509735  0.07841723     1.49100
Zn165      Zn  0.73617567  0.36732325  0.13827431     1.49500
O166        O  0.71149085  0.34482393  0.10594040    -1.84000
O167        O  0.61751514  0.34485670  0.08758476    -0.74600
O168        O  0.72940705  0.25375459  0.11056250    -0.74400
O169        O  0.73191920  0.34736976  0.03988600    -0.73900
O170        O  0.63669854  0.28794290  0.10555237    -0.74600
O171        O  0.68365512  0.39130718  0.04904626    -0.74200
O172        O  0.77385178  0.27945371  0.08141852    -0.74800
O173        O  0.78873305  0.38809790  0.12956620    -0.74200
O174        O  0.68964851  0.29536073  0.16261696    -0.75000
O175        O  0.80026674  0.37049858  0.08496133    -0.74300
O176        O  0.74338837  0.32963805  0.17000432    -0.74800
O177        O  0.70262019  0.41119651  0.15151910    -0.74700
O178        O  0.65667296  0.42300108  0.11834973    -0.74500
C179        C  0.61026780  0.30976004  0.09405448     0.77300
C180        C  0.76129274  0.25110348  0.09601011     0.77800
C181        C  0.70715543  0.37349157  0.03159450     0.76700
C182        C  0.81031364  0.38825866  0.10746535     0.77100
C183        C  0.71876770  0.30464062  0.17814702     0.78200
C184        C  0.67304928  0.43091032  0.14220106     0.77300
Zn185      Zn  0.83291776  0.64539538  0.64371902     1.49700
Zn186      Zn  0.78534931  0.59481588  0.59785913     1.49400
Zn187      Zn  0.74124052  0.65878400  0.63439836     1.49100
Zn188      Zn  0.80194581  0.68706661  0.58886261     1.49500
O189        O  0.79092480  0.64596195  0.61574333    -1.84000
O190        O  0.84737072  0.59053190  0.65281673    -0.74600
O191        O  0.73031525  0.57346934  0.60513757    -0.74400
O192        O  0.74990251  0.67340522  0.67417800    -0.73900
O193        O  0.82009879  0.55416421  0.61919551    -0.74600
O194        O  0.81510343  0.67056200  0.68029830    -0.74200
O195        O  0.70284860  0.61633697  0.63456264    -0.74800
O196        O  0.76419880  0.73380241  0.59516973    -0.74200
O197        O  0.78948871  0.60085736  0.55411091    -0.75000
O198        O  0.71521081  0.70588471  0.61847877    -0.74300
O199        O  0.79150934  0.66530880  0.55039020    -0.74800
O200        O  0.85908833  0.70561516  0.59159935    -0.74700
O201        O  0.87975973  0.67543813  0.63077981    -0.74500
C202        C  0.83983383  0.55755343  0.64227522     0.77300
C203        C  0.70186980  0.58434566  0.62141595     0.77800
C204        C  0.78032053  0.67905513  0.68931366     0.76700
C205        C  0.72960252  0.73532064  0.60641403     0.77100
C206        C  0.78746044  0.63198332  0.53921266     0.78200
C207        C  0.88559959  0.69887351  0.61040220     0.77300
Zn208      Zn  0.70555482  0.90493363  0.90237527     1.49700
Zn209      Zn  0.68874246  0.81629236  0.92525190     1.49400
Zn210      Zn  0.65785388  0.84303910  0.86520196     1.49100
Zn211      Zn  0.74996312  0.83289463  0.87718426     1.49500
O212        O  0.69946686  0.85020216  0.89287962    -1.84000
O213        O  0.70285860  0.90893346  0.94594330    -0.74600
O214        O  0.63042881  0.79807628  0.92515657    -0.74400
O215        O  0.64063135  0.89482792  0.84996919    -0.73900
O216        O  0.70071233  0.84754923  0.96121102    -0.74600
O217        O  0.66807045  0.93917903  0.87774431    -0.74200
O218        O  0.61143841  0.81461800  0.88152941    -0.74800
O219        O  0.74219803  0.80517658  0.84106408    -0.74200
O220        O  0.72530617  0.76732807  0.92144178    -0.75000
O221        O  0.67768623  0.81120709  0.83223899    -0.74300
O222        O  0.77744118  0.79486076  0.90192459    -0.74800
O223        O  0.78762415  0.87462948  0.86885880    -0.74700
O224        O  0.75976105  0.92523837  0.89033939    -0.74500
C225        C  0.70445320  0.88381171  0.96608097     0.77300
C226        C  0.60456758  0.79834037  0.90526192     0.77800
C227        C  0.64687554  0.93001686  0.85632178     0.76700
C228        C  0.71227234  0.79844289  0.82565748     0.77100
C229        C  0.76110170  0.76524193  0.91221048     0.78200
C230        C  0.78823430  0.90997448  0.87599872     0.77300
Zn231      Zn  0.57936107  0.49424865  0.37735071     1.49700
Zn232      Zn  0.59131951  0.58354220  0.38795462     1.49400
Zn233      Zn  0.65144448  0.53272077  0.34798916     1.49100
Zn234      Zn  0.56215515  0.55470997  0.32765892     1.49500
O235        O  0.59631034  0.54188473  0.35999134    -1.84000
O236        O  0.56356148  0.50284985  0.41738864    -0.74600
O237        O  0.64654666  0.59474157  0.40233638    -0.74400
O238        O  0.67114007  0.47762455  0.35558202    -0.73900
O239        O  0.55983697  0.56656370  0.42278272    -0.74600
O240        O  0.62042211  0.45175338  0.37795553    -0.74200
O241        O  0.68841908  0.56289560  0.37321443    -0.74800
O242        O  0.59271327  0.54224925  0.29119742    -0.74200
O243        O  0.56357671  0.63129723  0.37099250    -0.75000
O244        O  0.65610038  0.54014506  0.30524767    -0.74300
O245        O  0.54563920  0.61216325  0.32784023    -0.74800
O246        O  0.51122374  0.52338980  0.33031404    -0.74700
O247        O  0.52992716  0.47587749  0.35957727    -0.74500
C248        C  0.55398473  0.53247103  0.43204688     0.77300
C249        C  0.68165833  0.58360177  0.39524247     0.77800
C250        C  0.65588989  0.44940005  0.36872650     0.76700
C251        C  0.62988881  0.53907319  0.28559437     0.77100
C252        C  0.54709059  0.63821923  0.34703945     0.78200
C253        C  0.50406718  0.49205510  0.34360282     0.77300
Zn254      Zn  0.44693890  0.42374328  0.62792220     1.49700
Zn255      Zn  0.37267821  0.47023189  0.60734577     1.49400
Zn256      Zn  0.36298390  0.40792172  0.65772905     1.49100
Zn257      Zn  0.40726770  0.49005253  0.66606209     1.49500
O258        O  0.39692276  0.44735227  0.64052069    -1.84000
O259        O  0.45442351  0.42706559  0.58554106    -0.74600
O260        O  0.32930833  0.43701914  0.59424941    -0.74400
O261        O  0.39546953  0.35671099  0.66218490    -0.73900
O262        O  0.41304627  0.47631753  0.57622265    -0.74600
O263        O  0.45340447  0.36898161  0.64151617    -0.74200
O264        O  0.31670907  0.39599585  0.62957055    -0.74800
O265        O  0.38852754  0.47558308  0.70477270    -0.74200
O266        O  0.34872282  0.52257336  0.61435219    -0.75000
O267        O  0.34622645  0.42734626  0.69840677    -0.74300
O268        O  0.37675199  0.53943188  0.65483806    -0.74800
O269        O  0.46570905  0.50274425  0.66636930    -0.74700
O270        O  0.49268990  0.45409959  0.64165038    -0.74500
C271        C  0.44283124  0.45480690  0.56954463     0.77300
C272        C  0.30930518  0.40965282  0.60472606     0.77800
C273        C  0.43064384  0.34603350  0.65462977     0.76700
C274        C  0.36236106  0.45281326  0.71433335     0.77100
C275        C  0.35436696  0.54738676  0.63371214     0.78200
C276        C  0.49591521  0.48564526  0.65523330     0.77300
Zn277      Zn  0.20367114  0.89266013  0.58556814     1.49700
Zn278      Zn  0.15331827  0.84262298  0.63007944     1.49400
Zn279      Zn  0.18043014  0.80353055  0.57378483     1.49100
Zn280      Zn  0.24421605  0.82344607  0.61866780     1.49500
O281        O  0.19492638  0.84139902  0.60172032    -1.84000
O282        O  0.17332211  0.93400132  0.60963006    -0.74600
O283        O  0.10246369  0.82093072  0.61499124    -0.74400
O284        O  0.19590929  0.82538106  0.53625904    -0.73900
O285        O  0.14592779  0.89745735  0.64327172    -0.74600
O286        O  0.19918631  0.88959982  0.54153401    -0.74200
O287        O  0.12120879  0.79289552  0.57448867    -0.74800
O288        O  0.26497401  0.77455727  0.60162619    -0.74200
O289        O  0.16938641  0.81033555  0.66410620    -0.75000
O290        O  0.21077108  0.75252890  0.58100975    -0.74300
O291        O  0.23475406  0.80705294  0.65799067    -0.74800
O292        O  0.28679707  0.86244812  0.61918494    -0.74700
O293        O  0.26010194  0.90916971  0.59278525    -0.74500
C294        C  0.15560561  0.93040662  0.63362222     0.77300
C295        C  0.09451734  0.80107960  0.59297477     0.77800
C296        C  0.20143842  0.85902797  0.52598822     0.76700
C297        C  0.24528628  0.74676156  0.59163100     0.77100
C298        C  0.20397714  0.80006964  0.67257118     0.78200
C299        C  0.28885933  0.89541743  0.60746084     0.77300
Zn300      Zn  0.31012542  0.69298168  0.91676716     1.49700
Zn301      Zn  0.27762760  0.60685240  0.89940698     1.49400
Zn302      Zn  0.24105385  0.68221627  0.87167623     1.49100
Zn303      Zn  0.32928574  0.65628456  0.85632759     1.49500
O304        O  0.28999801  0.65922901  0.88648466    -1.84000
O305        O  0.29914434  0.66650256  0.95470268    -0.74600
O306        O  0.21928607  0.59531273  0.89295103    -0.74400
O307        O  0.23147952  0.73518596  0.88616715    -0.73900
O308        O  0.28637494  0.60542072  0.94238783    -0.74600
O309        O  0.28165299  0.74640717  0.91547689    -0.74200
O310        O  0.19285899  0.65146373  0.87882570    -0.74800
O311        O  0.30915753  0.68296184  0.82100356    -0.74200
O312        O  0.30694433  0.56458298  0.87582212    -0.75000
O313        O  0.24462250  0.68967877  0.83008214    -0.74300
O314        O  0.33984099  0.60103625  0.84514840    -0.74800
O315        O  0.38082904  0.68001871  0.86822991    -0.74700
O316        O  0.37016436  0.70271277  0.91178327    -0.74500
C317        C  0.29139892  0.63154472  0.96133271     0.77300
C318        C  0.18936903  0.61614623  0.88549615     0.77800
C319        C  0.25047794  0.75769569  0.90214852     0.76700
C320        C  0.27396641  0.69222951  0.81323043     0.77100
C321        C  0.32917652  0.56803401  0.85395458     0.78200
C322        C  0.39324541  0.69691939  0.89048506     0.77300
Zn323      Zn  0.86986250  0.41771340  0.84266382     1.49700
Zn324      Zn  0.90528107  0.50594541  0.84504823     1.49400
Zn325      Zn  0.87066487  0.47248143  0.89906549     1.49100
Zn326      Zn  0.95008190  0.43894480  0.87265658     1.49500
O327        O  0.89721092  0.45788815  0.86446094    -1.84000
O328        O  0.86724679  0.43710158  0.80026578    -0.74600
O329        O  0.86820753  0.55006782  0.85829762    -0.74400
O330        O  0.82821141  0.43604096  0.90569104    -0.73900
O331        O  0.89755335  0.49391314  0.80422302    -0.74600
O332        O  0.81664818  0.40641593  0.86429393    -0.74200
O333        O  0.84277346  0.52398036  0.89705997    -0.74800
O334        O  0.96403351  0.45095504  0.91232830    -0.74200
O335        O  0.96178900  0.52301409  0.85099639    -0.75000
O336        O  0.90877348  0.47537319  0.93182575    -0.74300
O337        O  0.99169464  0.46531514  0.84998125    -0.74800
O338        O  0.95556219  0.38238695  0.86848714    -0.74700
O339        O  0.90239901  0.36547293  0.84396758    -0.74500
C340        C  0.88268998  0.46727437  0.78907778     0.77300
C341        C  0.84547467  0.55218975  0.87999366     0.77800
C342        C  0.80747401  0.41408662  0.89028108     0.76700
C343        C  0.94554861  0.46605277  0.93323490     0.77100
C344        C  0.99340829  0.50201508  0.85011301     0.78200
C345        C  0.93513737  0.35672939  0.85647560     0.77300
Zn346      Zn  0.09139000  0.50532535  0.16073898     1.49700
Zn347      Zn  0.13205968  0.58918699  0.15763720     1.49400
Zn348      Zn  0.12663459  0.53027785  0.10422070     1.49100
Zn349      Zn  0.04985134  0.57209724  0.12583573     1.49500
O350        O  0.10079598  0.55009434  0.13778963    -1.84000
O351        O  0.10314106  0.51874218  0.20027603    -0.74600
O352        O  0.18040052  0.60350734  0.13133342    -0.74400
O353        O  0.15133911  0.47719421  0.10848471    -0.73900
O354        O  0.14378243  0.56900950  0.19931047    -0.74600
O355        O  0.12673964  0.45982561  0.15002346    -0.74200
O356        O  0.16962273  0.56506116  0.09412146    -0.74800
O357        O  0.04577622  0.57640263  0.08367657    -0.74200
O358        O  0.09727424  0.63891697  0.16176223    -0.75000
O359        O  0.08751942  0.52817496  0.07255011    -0.74300
O360        O  0.03883691  0.62411198  0.14308317    -0.74800
O361        O  0.00571525  0.53601920  0.13404573    -0.74700
O362        O  0.03520284  0.48754345  0.15742287    -0.74500
C363        C  0.12560763  0.54230639  0.21288409     0.77300
C364        C  0.18893768  0.59166759  0.10608740     0.77800
C365        C  0.14821191  0.45251183  0.12829232     0.76700
C366        C  0.05775183  0.55007078  0.06662234     0.77100
C367        C  0.06116351  0.64792767  0.15560797     0.78200
C368        C  0.00474238  0.50282254  0.14558329     0.77300
C369        C  0.96844028  0.47484265  0.95881332    -0.05100
C370        C  0.00364067  0.45367303  0.96461286    -0.05000
C371        C  0.02866816  0.46501521  0.98642590    -0.23200
C372        C  0.01911998  0.49803251  0.00249970     0.19000
C373        C  0.98353381  0.51931647  0.99705700     0.16200
C374        C  0.95811679  0.50729493  0.97542559    -0.18200
C375        C  0.97429469  0.55249387  0.01311001    -0.20000
C376        C  0.99961317  0.56388827  0.03486506    -0.12600
C377        C  0.03461512  0.54234903  0.04079437     0.04100
C378        C  0.04447647  0.50982035  0.02411516    -0.24700
H379        H  0.01215627  0.42867025  0.95189725     0.09100
H380        H  0.05577295  0.44833865  0.99041886     0.12800
H381        H  0.93130960  0.52410989  0.97071316     0.12700
H382        H  0.94723514  0.56924744  0.00914528     0.12400
H383        H  0.99114566  0.58887122  0.04760005     0.13000
H384        H  0.07121134  0.49276049  0.02856039     0.14900
C385        C  0.03263524  0.52000157  0.85179131    -0.05100
C386        C  0.06701909  0.49937143  0.84304461    -0.05000
C387        C  0.10468422  0.51381126  0.84844700    -0.23200
C388        C  0.10857145  0.54890007  0.86300836     0.19000
C389        C  0.07411455  0.57026072  0.87141462     0.16200
C390        C  0.03639045  0.55581472  0.86556537    -0.18200
C391        C  0.07800324  0.60554332  0.88575224    -0.20000
C392        C  0.11569960  0.61998054  0.89110483    -0.12600
C393        C  0.15000984  0.59890065  0.88286656     0.04100
C394        C  0.14631388  0.56312124  0.86914320    -0.24700
H395        H  0.06476265  0.47162958  0.83252000     0.09100
H396        H  0.13076174  0.49721861  0.84167353     0.12800
H397        H  0.01003983  0.57166338  0.87278478     0.12700
H398        H  0.05193140  0.62223689  0.89241224     0.12400
H399        H  0.11813459  0.64780276  0.90149487     0.13000
H400        H  0.17277936  0.54716545  0.86225884     0.14900
C401        C  0.22057431  0.60876526  0.08845449    -0.05100
C402        C  0.21981363  0.64851765  0.08220390    -0.05000
C403        C  0.23865713  0.66225167  0.05758922    -0.23200
C404        C  0.25785502  0.63627851  0.03867043     0.19000
C405        C  0.26130581  0.59674288  0.04611801     0.16200
C406        C  0.24352714  0.58353213  0.07118910    -0.18200
C407        C  0.27928842  0.57031909  0.02718012    -0.20000
C408        C  0.29096492  0.58225711  0.00014944    -0.12600
C409        C  0.28584205  0.62103064  0.99169420     0.04100
C410        C  0.27088454  0.64836965  0.01160056    -0.24700
H411        H  0.20175281  0.66837881  0.09486082     0.09100
H412        H  0.23576282  0.69271983  0.05234271     0.12800
H413        H  0.24392183  0.55273024  0.07571862     0.12700
H414        H  0.28228999  0.53992900  0.03266738     0.12400
H415        H  0.30274330  0.56077649  0.98541452     0.13000
H416        H  0.26653496  0.67834633  0.00530142     0.14900
C417        C  0.20936869  0.77862167  0.69937902    -0.05100
C418        C  0.17693198  0.77017814  0.71697156    -0.05000
C419        C  0.18289110  0.74968250  0.74225087    -0.23200
C420        C  0.22136332  0.73745612  0.75022138     0.19000
C421        C  0.25395467  0.74512961  0.73231595     0.16200
C422        C  0.24774814  0.76548131  0.70707896    -0.18200
C423        C  0.29242715  0.73297701  0.74013918    -0.20000
C424        C  0.29882897  0.71453467  0.76610062    -0.12600
C425        C  0.26682541  0.70781258  0.78451888     0.04100
C426        C  0.22796165  0.71857830  0.77611635    -0.24700
H427        H  0.14704840  0.77957043  0.71128873     0.09100
H428        H  0.15755161  0.74381878  0.75570519     0.12800
H429        H  0.27305281  0.77129999  0.69355216     0.12700
H430        H  0.31765095  0.73850764  0.72648365     0.12400
H431        H  0.32897844  0.70643446  0.77204945     0.13000
H432        H  0.20294699  0.71339179  0.79006050     0.14900
C433        C  0.26213656  0.70703218  0.59480036    -0.05100
C434        C  0.24715356  0.67578067  0.57942755    -0.05000
C435        C  0.26173900  0.63806443  0.58433428    -0.23200
C436        C  0.29103516  0.63098152  0.60504761     0.19000
C437        C  0.30571783  0.66214524  0.62095498     0.16200
C438        C  0.29154145  0.69985879  0.61553853    -0.18200
C439        C  0.33426357  0.65512472  0.64213389    -0.20000
C440        C  0.34900108  0.61757069  0.64702528    -0.12600
C441        C  0.33566490  0.58643491  0.63070587     0.04100
C442        C  0.30613966  0.59335190  0.60997558    -0.24700
H443        H  0.22413766  0.68049793  0.56367048     0.09100
H444        H  0.24995582  0.61443602  0.57207162     0.12800
H445        H  0.30273593  0.72353965  0.62807710     0.12700
H446        H  0.34553711  0.67873318  0.65468196     0.12400
H447        H  0.37170179  0.61309257  0.66304718     0.13000
H448        H  0.29530715  0.56957501  0.59737860     0.14900
C449        C  0.35026330  0.45861626  0.74447724    -0.05100
C450        C  0.31009202  0.45838087  0.75272091    -0.05000
C451        C  0.29801880  0.47452382  0.77888383    -0.23200
C452        C  0.32594023  0.49132427  0.79709306     0.19000
C453        C  0.36674306  0.48867114  0.78991790     0.16200
C454        C  0.37857657  0.47195553  0.76394898    -0.18200
C455        C  0.39484017  0.50589796  0.80755481    -0.20000
C456        C  0.38244760  0.52885303  0.83049832    -0.12600
C457        C  0.34189066  0.53404555  0.83680535     0.04100
C458        C  0.31374747  0.51356778  0.82091530    -0.24700
H459        H  0.28773173  0.44842652  0.73809430     0.09100
H460        H  0.26660633  0.47600463  0.78404612     0.12800
H461        H  0.40970909  0.47209592  0.75787310     0.12700
H462        H  0.42625073  0.50395339  0.80241030     0.12400
H463        H  0.40444094  0.54471466  0.84223878     0.13000
H464        H  0.28231193  0.51814336  0.82526809     0.14900
C465        C  0.53434237  0.52608668  0.45975571    -0.05100
C466        C  0.51195345  0.55565938  0.47320396    -0.05000
C467        C  0.48938211  0.54761965  0.49745658    -0.23200
C468        C  0.48901128  0.50992275  0.50863538     0.19000
C469        C  0.51275283  0.48044833  0.49589066     0.16200
C470        C  0.53524868  0.48872860  0.47169850    -0.18200
C471        C  0.51313058  0.44291861  0.50721992    -0.20000
C472        C  0.48993252  0.43449393  0.53093962    -0.12600
C473        C  0.46556326  0.46329525  0.54349738     0.04100
C474        C  0.46526035  0.50107756  0.53223062    -0.24700
H475        H  0.51077418  0.58463086  0.46441532     0.09100
H476        H  0.47164166  0.57067340  0.50712940     0.12800
H477        H  0.55277251  0.46569775  0.46175887     0.12700
H478        H  0.53136315  0.42007235  0.49773164     0.12400
H479        H  0.49094954  0.40535065  0.53943194     0.13000
H480        H  0.44718820  0.52372535  0.54214231     0.14900
C481        C  0.43500798  0.71088562  0.89066174    -0.05100
C482        C  0.45825353  0.70724563  0.86581507    -0.05000
C483        C  0.49619837  0.72265786  0.86427841    -0.23200
C484        C  0.51217333  0.74194360  0.88761841     0.19000
C485        C  0.49019659  0.74460869  0.91320250     0.16200
C486        C  0.45158518  0.72923358  0.91456033    -0.18200
C487        C  0.50714480  0.76315668  0.93672108    -0.20000
C488        C  0.54491051  0.77962687  0.93463151    -0.12600
C489        C  0.56603601  0.77855412  0.90883603     0.04100
C490        C  0.54953865  0.75916071  0.88553561    -0.24700
H491        H  0.44675752  0.69316272  0.84710228     0.09100
H492        H  0.51284302  0.71997477  0.84460236     0.12800
H493        H  0.43434668  0.73208512  0.93395886     0.12700
H494        H  0.49102419  0.76529862  0.95663403     0.12400
H495        H  0.55704735  0.79427152  0.95288708     0.13000
H496        H  0.56584470  0.75758620  0.86564284     0.14900
C497        C  0.82323594  0.58842221  0.88669058    -0.05100
C498        C  0.78521566  0.58737468  0.89914547    -0.05000
C499        C  0.76558064  0.62158958  0.90784490    -0.23200
C500        C  0.78417469  0.65733539  0.90503340     0.19000
C501        C  0.82283907  0.65834707  0.89313131     0.16200
C502        C  0.84172803  0.62409725  0.88353893    -0.18200
C503        C  0.84219032  0.69359112  0.89114193    -0.20000
C504        C  0.82292949  0.72779687  0.89968850    -0.12600
C505        C  0.78356436  0.72778114  0.91008237     0.04100
C506        C  0.76466164  0.69211113  0.91339089    -0.24700
H507        H  0.77071243  0.55999909  0.90213943     0.09100
H508        H  0.73609000  0.62003801  0.91704341     0.12800
H509        H  0.87146504  0.62498927  0.87461723     0.12700
H510        H  0.87200594  0.69484564  0.88243994     0.12400
H511        H  0.83844092  0.75465373  0.89687380     0.13000
H512        H  0.73432884  0.69153960  0.92119802     0.14900
C513        C  0.92297311  0.72047475  0.61029378    -0.05100
C514        C  0.93762899  0.73371288  0.63636539    -0.05000
C515        C  0.97260225  0.75441041  0.63758167    -0.23200
C516        C  0.99428109  0.76144171  0.61278819     0.19000
C517        C  0.98016680  0.74815939  0.58632084     0.16200
C518        C  0.94396410  0.72837661  0.58512380    -0.18200
C519        C  0.00311861  0.75410680  0.56179043    -0.20000
C520        C  0.04003628  0.77204732  0.56366032    -0.12600
C521        C  0.05410414  0.78530621  0.58995891     0.04100
C522        C  0.03051869  0.78050517  0.61431360    -0.24700
H523        H  0.92163107  0.72836845  0.65593495     0.09100
H524        H  0.98306354  0.76432586  0.65802381     0.12800
H525        H  0.93285172  0.71813270  0.56494873     0.12700
H526        H  0.99301361  0.74403277  0.54130540     0.12400
H527        H  0.05774149  0.77526703  0.54459339     0.13000
H528        H  0.04123036  0.79000973  0.63481097     0.14900
C529        C  0.88555712  0.47284330  0.75782565    -0.05100
C530        C  0.91905805  0.49203759  0.74736810    -0.05000
C531        C  0.91990230  0.50660681  0.71981202    -0.23200
C532        C  0.88710271  0.50253468  0.70201127     0.19000
C533        C  0.85471532  0.48009994  0.71107135     0.16200
C534        C  0.85425812  0.46489852  0.73902392    -0.18200
C535        C  0.82207422  0.47624605  0.69280269    -0.20000
C536        C  0.81970460  0.49774055  0.66749987    -0.12600
C537        C  0.84991996  0.52338171  0.66008176     0.04100
C538        C  0.88464539  0.52363491  0.67654701    -0.24700
H539        H  0.94397488  0.49772457  0.76118177     0.09100
H540        H  0.94524407  0.52315511  0.71306419     0.12800
H541        H  0.82836884  0.45000149  0.74676327     0.12700
H542        H  0.79708027  0.45890604  0.69905345     0.12400
H543        H  0.79240556  0.49739695  0.65535524     0.13000
H544        H  0.90799356  0.54349983  0.67109556     0.14900
C545        C  0.77447676  0.69761710  0.71720595    -0.05100
C546        C  0.80690279  0.70587292  0.73474610    -0.05000
C547        C  0.80100780  0.72664841  0.75991378    -0.23200
C548        C  0.76267334  0.73965532  0.76768865     0.19000
C549        C  0.72989949  0.73098179  0.75034511     0.16200
C550        C  0.73596271  0.70980080  0.72543889    -0.18200
C551        C  0.69161072  0.74423495  0.75786662    -0.20000
C552        C  0.68580364  0.76624989  0.78238558    -0.12600
C553        C  0.71819409  0.77517845  0.79975249     0.04100
C554        C  0.75659816  0.76158769  0.79231951    -0.24700
H555        H  0.83684722  0.69689674  0.72877882     0.09100
H556        H  0.82644195  0.73308134  0.77303096     0.12800
H557        H  0.71063590  0.70378059  0.71207944     0.12700
H558        H  0.66622790  0.73781294  0.74469212     0.12400
H559        H  0.65596242  0.77630655  0.78771493     0.13000
H560        H  0.78186724  0.76825025  0.80555348     0.14900
C561        C  0.53512384  0.50408166  0.65594425    -0.05100
C562        C  0.54190214  0.53559130  0.67399305    -0.05000
C563        C  0.57691155  0.55636701  0.67167046    -0.23200
C564        C  0.60536870  0.54634952  0.65092253     0.19000
C565        C  0.59939528  0.51406563  0.63319603     0.16200
C566        C  0.56459638  0.49286167  0.63606127    -0.18200
C567        C  0.62768800  0.50431321  0.61225604    -0.20000
C568        C  0.66126706  0.52688929  0.60851687    -0.12600
C569        C  0.66705889  0.55956318  0.62563999     0.04100
C570        C  0.63915596  0.56873737  0.64711849    -0.24700
H571        H  0.51968919  0.54477879  0.68943778     0.09100
H572        H  0.58117291  0.58096659  0.68551347     0.12800
H573        H  0.55963134  0.46883605  0.62179235     0.12700
H574        H  0.62353161  0.47961618  0.59848729     0.12400
H575        H  0.68239420  0.51908690  0.59195698     0.13000
H576        H  0.64340566  0.59362018  0.66070760     0.14900
C577        C  0.77602630  0.63081163  0.50872950    -0.05100
C578        C  0.75824200  0.66426350  0.49662401    -0.05000
C579        C  0.73973002  0.66292996  0.47021604    -0.23200
C580        C  0.73917490  0.62828127  0.45494777     0.19000
C581        C  0.75998240  0.59523500  0.46551657     0.16200
C582        C  0.77793819  0.59650655  0.49257545    -0.18200
C583        C  0.76046512  0.56101235  0.44946468    -0.20000
C584        C  0.73806597  0.55877496  0.42449138    -0.12600
C585        C  0.71427835  0.59044332  0.41544127     0.04100
C586        C  0.71610008  0.62556938  0.43021811    -0.24700
H587        H  0.75635703  0.69121398  0.50835852     0.09100
H588        H  0.72448083  0.68868359  0.46226397     0.12800
H589        H  0.79186186  0.57062270  0.50144572     0.12700
H590        H  0.77659556  0.53546901  0.45689284     0.12400
H591        H  0.73672719  0.53123597  0.41355910     0.13000
H592        H  0.69775922  0.65005575  0.42338912     0.14900
C593        C  0.65755351  0.46212204  0.16111106    -0.05100
C594        C  0.61652999  0.46813141  0.16529807    -0.05000
C595        C  0.60243743  0.48904226  0.18901501    -0.23200
C596        C  0.62920661  0.50393095  0.20894281     0.19000
C597        C  0.67046563  0.50053413  0.20357661     0.16200
C598        C  0.68425740  0.48023548  0.17956947    -0.18200
C599        C  0.69744822  0.51489432  0.22337808    -0.20000
C600        C  0.68391867  0.52978624  0.24932340    -0.12600
C601        C  0.64308894  0.53104721  0.25591285     0.04100
C602        C  0.61570752  0.51967159  0.23497202    -0.24700
H603        H  0.59543164  0.45425105  0.15151553     0.09100
H604        H  0.57065669  0.49157888  0.19264310     0.12800
H605        H  0.71602714  0.47590934  0.17644990     0.12700
H606        H  0.72919179  0.51277435  0.21943452     0.12400
H607        H  0.70567811  0.53868121  0.26478213     0.13000
H608        H  0.58412493  0.52048499  0.23964636     0.14900
C609        C  0.84748707  0.40973089  0.10879994    -0.05100
C610        C  0.86075639  0.43147882  0.08562981    -0.05000
C611        C  0.89367797  0.45520016  0.08855316    -0.23200
C612        C  0.91406983  0.45679719  0.11452536     0.19000
C613        C  0.90165286  0.43378024  0.13756498     0.16200
C614        C  0.86826089  0.41080205  0.13461999    -0.18200
C615        C  0.92280818  0.43409844  0.16319839    -0.20000
C616        C  0.95626985  0.45691323  0.16597632    -0.12600
C617        C  0.96823194  0.48055868  0.14348343     0.04100
C618        C  0.94689264  0.48063398  0.11783527    -0.24700
H619        H  0.84484296  0.43116976  0.06566180     0.09100
H620        H  0.90303747  0.47243345  0.07061083     0.12800
H621        H  0.85826448  0.39375437  0.15250822     0.12700
H622        H  0.91375826  0.41635903  0.18095358     0.12400
H623        H  0.97273605  0.45627234  0.18572200     0.13000
H624        H  0.95670599  0.49821317  0.10017518     0.14900
C625        C  0.70836676  0.38426777  0.00111289    -0.05100
C626        C  0.70122357  0.42276616  0.99270126    -0.05000
C627        C  0.71231166  0.43505038  0.96552605    -0.23200
C628        C  0.73080597  0.40900296  0.94643402     0.19000
C629        C  0.73476083  0.36948141  0.95371993     0.16200
C630        C  0.72313147  0.35730738  0.98092904    -0.18200
C631        C  0.75381504  0.34359340  0.93473511    -0.20000
C632        C  0.77312543  0.35753549  0.91049472    -0.12600
C633        C  0.77299300  0.39736490  0.90480234     0.04100
C634        C  0.74917586  0.42248290  0.92164325    -0.24700
H635        H  0.68986663  0.44398607  0.00779114     0.09100
H636        H  0.70884860  0.46543759  0.96015182     0.12800
H637        H  0.72840549  0.32740150  0.98712367     0.12700
H638        H  0.75678148  0.31310192  0.93989505     0.12400
H639        H  0.79175790  0.33784064  0.89810764     0.13000
H640        H  0.74937653  0.45337090  0.91749353     0.14900
C641        C  0.67994230  0.41374518  0.37452658    -0.05100
C642        C  0.71863904  0.40879349  0.36348455    -0.05000
C643        C  0.74154271  0.37560824  0.36997134    -0.23200
C644        C  0.72618491  0.34681764  0.38764247     0.19000
C645        C  0.68745942  0.35171767  0.39904365     0.16200
C646        C  0.66473653  0.38501336  0.39245494    -0.18200
C647        C  0.67158607  0.32269752  0.41620986    -0.20000
C648        C  0.69300332  0.28818183  0.42078338    -0.12600
C649        C  0.73103699  0.28264573  0.40901384     0.04100
C650        C  0.74802104  0.31243616  0.39308286    -0.24700
H651        H  0.73121463  0.43056810  0.34981509     0.09100
H652        H  0.77111470  0.37229432  0.36094710     0.12800
H653        H  0.63507416  0.38845458  0.40133231     0.12700
H654        H  0.64189011  0.32596818  0.42503144     0.12400
H655        H  0.67912981  0.26497212  0.43235567     0.13000
H656        H  0.77683859  0.30759187  0.38311746     0.14900
C657        C  0.72507878  0.28480028  0.20533305    -0.05100
C658        C  0.69271555  0.26962585  0.22008894    -0.05000
C659        C  0.69889846  0.24827809  0.24481867    -0.23200
C660        C  0.73760772  0.24120380  0.25476410     0.19000
C661        C  0.77047028  0.25623801  0.24004788     0.16200
C662        C  0.76393048  0.27845150  0.21556096    -0.18200
C663        C  0.80919500  0.24832397  0.24990936    -0.20000
C664        C  0.81519989  0.22607036  0.27442173    -0.12600
C665        C  0.78251284  0.21178079  0.28939166     0.04100
C666        C  0.74385356  0.21922359  0.27921537    -0.24700
H667        H  0.66263293  0.27419222  0.21241300     0.09100
H668        H  0.67347073  0.23687195  0.25595137     0.12800
H669        H  0.78906924  0.28962950  0.20393904     0.12700
H670        H  0.83473095  0.25949350  0.23877890     0.12400
H671        H  0.84521100  0.22085584  0.28203174     0.13000
H672        H  0.71836137  0.20807712  0.29045751     0.14900
C673        C  0.01628026  0.18378351  0.84239426    -0.05100
C674        C  0.99956906  0.19542369  0.81626327    -0.05000
C675        C  0.97866263  0.23087199  0.81372862    -0.23200
C676        C  0.97376334  0.25537835  0.83732482     0.19000
C677        C  0.99032383  0.24381527  0.86369342     0.16200
C678        C  0.01143103  0.20835914  0.86602995    -0.18200
C679        C  0.98586034  0.26806140  0.88735091    -0.20000
C680        C  0.96640204  0.30395586  0.88477617    -0.12600
C681        C  0.95036257  0.31628168  0.85865853     0.04100
C682        C  0.95339150  0.29150376  0.83499347    -0.24700
H683        H  0.00263703  0.17706515  0.79770340     0.09100
H684        H  0.96635433  0.23910584  0.79330214     0.12800
H685        H  0.02371457  0.19974231  0.88640037     0.12700
H686        H  0.99817522  0.25964281  0.90774407     0.12400
H687        H  0.96443375  0.32261189  0.90326134     0.13000
H688        H  0.94159600  0.30100024  0.81468928     0.14900
C689        C  0.95905877  0.97719141  0.83617751    -0.05100
C690        C  0.95782700  0.93739736  0.83033680    -0.05000
C691        C  0.92306979  0.91702085  0.83503732    -0.23200
C692        C  0.88935119  0.93591689  0.84652254     0.19000
C693        C  0.88986303  0.97619390  0.85171250     0.16200
C694        C  0.92451388  0.99679042  0.84588337    -0.18200
C695        C  0.85642557  0.99471964  0.86399020    -0.20000
C696        C  0.82327270  0.97335030  0.87184512    -0.12600
C697        C  0.82276557  0.93316851  0.86722006     0.04100
C698        C  0.85576706  0.91485035  0.85397183    -0.24700
H699        H  0.98424350  0.92182089  0.82300092     0.09100
H700        H  0.92313712  0.88616440  0.83088937     0.12800
H701        H  0.92554693  0.02737354  0.85093551     0.12700
H702        H  0.85628011  0.02557102  0.86814051     0.12400
H703        H  0.79813265  0.98825000  0.88170552     0.13000
H704        H  0.85588549  0.88389949  0.85015434     0.14900
C705        C  0.17842647  0.92506593  0.86581208    -0.05100
C706        C  0.21210163  0.91623181  0.84910530    -0.05000
C707        C  0.23543503  0.88300922  0.85464912    -0.23200
C708        C  0.22569747  0.85830164  0.87717708     0.19000
C709        C  0.19260470  0.86760112  0.89465364     0.16200
C710        C  0.16922052  0.90078820  0.88882613    -0.18200
C711        C  0.18262623  0.84282027  0.91707578    -0.20000
C712        C  0.20396511  0.80806105  0.92121091    -0.12600
C713        C  0.23601725  0.79803311  0.90339530     0.04100
C714        C  0.24732297  0.82359342  0.88177369    -0.24700
H715        H  0.21991277  0.93457992  0.83139242     0.09100
H716        H  0.26072476  0.87632146  0.84105142     0.12800
H717        H  0.14361701  0.90754704  0.90213327     0.12700
H718        H  0.15729325  0.84951390  0.93063394     0.12400
H719        H  0.19418548  0.78804107  0.93735492     0.13000
H720        H  0.27131023  0.81522449  0.86742388     0.14900
C721        C  0.15015108  0.96395231  0.65297606    -0.05100
C722        C  0.18381843  0.98371504  0.66228329    -0.05000
C723        C  0.18241832  0.00597524  0.68726218    -0.23200
C724        C  0.14711759  0.00931821  0.70319523     0.19000
C725        C  0.11232522  0.99228242  0.69249731     0.16200
C726        C  0.11415347  0.96942301  0.66775179    -0.18200
C727        C  0.07667800  0.99643094  0.70760449    -0.20000
C728        C  0.07577964  0.01521219  0.73381289    -0.12600
C729        C  0.11065100  0.02978002  0.74606175     0.04100
C730        C  0.14627150  0.02758047  0.73016872    -0.24700
H731        H  0.21211330  0.97927152  0.65157383     0.09100
H732        H  0.20940174  0.01905395  0.69478970     0.12800
H733        H  0.08817157  0.95390342  0.66095354     0.12700
H734        H  0.04961512  0.98399262  0.69959760     0.12400
H735        H  0.04777757  0.01635680  0.74523054     0.13000
H736        H  0.17333921  0.03884684  0.73907868     0.14900
C737        C  0.04492977  0.68746528  0.16155734    -0.05100
C738        C  0.07060878  0.71878511  0.16386257    -0.05000
C739        C  0.05543109  0.75682130  0.16458080    -0.23200
C740        C  0.01425912  0.76421601  0.16323430     0.19000
C741        C  0.98796289  0.73297040  0.16280143     0.16200
C742        C  0.00345694  0.69479048  0.16191360    -0.18200
C743        C  0.94670979  0.74056417  0.16203657    -0.20000
C744        C  0.93176433  0.77872582  0.16014626    -0.12600
C745        C  0.95785147  0.80980038  0.15869085     0.04100
C746        C  0.99907110  0.80230092  0.16110737    -0.24700
H747        H  0.10255356  0.71400369  0.16364536     0.09100
H748        H  0.07597222  0.78050070  0.16521323     0.12800
H749        H  0.98326846  0.67087211  0.16045564     0.12700
H750        H  0.92606713  0.71695742  0.16199536     0.12400
H751        H  0.89995895  0.78380168  0.15842929     0.13000
H752        H  0.01947078  0.82613198  0.16045201     0.14900
C753        C  0.71370147  0.89711962  0.99552773    -0.05100
C754        C  0.71704091  0.93692731  0.00109431    -0.05000
C755        C  0.73280461  0.94988144  0.02673654    -0.23200
C756        C  0.74602173  0.92333197  0.04736803     0.19000
C757        C  0.74050684  0.88337913  0.04312618     0.16200
C758        C  0.72392155  0.87048536  0.01732133    -0.18200
C759        C  0.75429484  0.85703884  0.06393883    -0.20000
C760        C  0.77663787  0.86987994  0.08721353    -0.12600
C761        C  0.78511289  0.90928114  0.09016652     0.04100
C762        C  0.76751685  0.93597616  0.07102612    -0.24700
H763        H  0.70911256  0.95820132  0.98506448     0.09100
H764        H  0.73655142  0.98067145  0.02979740     0.12800
H765        H  0.72149015  0.83969461  0.01353563     0.12700
H766        H  0.75004948  0.82627137  0.06125653     0.12400
H767        H  0.78999598  0.84872757  0.10147073     0.13000
H768        H  0.77367046  0.96652631  0.07313003     0.14900
C769        C  0.85671141  0.09239240  0.13138992    -0.05100
C770        C  0.83939598  0.10943348  0.15562054    -0.05000
C771        C  0.81698006  0.14389983  0.15333188    -0.23200
C772        C  0.81231597  0.16216567  0.12686495     0.19000
C773        C  0.83134704  0.14621465  0.10261254     0.16200
C774        C  0.85300268  0.11118686  0.10498650    -0.18200
C775        C  0.82801120  0.16537533  0.07637859    -0.20000
C776        C  0.80553113  0.19983275  0.07410715    -0.12600
C777        C  0.78522027  0.21493379  0.09784197     0.04100
C778        C  0.78886181  0.19603357  0.12420116    -0.24700
H779        H  0.84188295  0.09528259  0.17609001     0.09100
H780        H  0.80291503  0.15602630  0.17217883     0.12800
H781        H  0.86675104  0.09833063  0.08625583     0.12700
H782        H  0.84278529  0.15372141  0.05765032     0.12400
H783        H  0.80337537  0.21430327  0.05374289     0.13000
H784        H  0.77397283  0.20814216  0.14276685     0.14900
C785        C  0.89064483  0.96317668  0.24450458    -0.05100
C786        C  0.92396596  0.97689075  0.25917207    -0.05000
C787        C  0.92010919  0.99318808  0.28612834    -0.23200
C788        C  0.88281255  0.99599377  0.29918986     0.19000
C789        C  0.84980068  0.97841346  0.28627912     0.16200
C790        C  0.85392189  0.96178664  0.25890940    -0.18200
C791        C  0.81269856  0.98075392  0.30001370    -0.20000
C792        C  0.80767410  0.00337017  0.32459689    -0.12600
C793        C  0.83953619  0.02426376  0.33567134     0.04100
C794        C  0.87745758  0.01886801  0.32365887    -0.24700
H795        H  0.95283319  0.97745237  0.24892182     0.09100
H796        H  0.94590061  0.00572502  0.29597733     0.12800
H797        H  0.82805098  0.95111482  0.24798904     0.12700
H798        H  0.78705575  0.96713783  0.29080507     0.12400
H799        H  0.77806530  0.00732568  0.33341341     0.13000
H800        H  0.90215636  0.03488837  0.33207084     0.14900
C801        C  0.03118804  0.02689595  0.95135160    -0.05100
C802        C  0.01276989  0.05651499  0.96739025    -0.05000
C803        C  0.99325464  0.04779134  0.99272741    -0.23200
C804        C  0.99228359  0.00941990  0.00242248     0.19000
C805        C  0.01177589  0.97962348  0.98685358     0.16200
C806        C  0.03093418  0.98854926  0.96141586    -0.18200
C807        C  0.01166504  0.94138902  0.99693405    -0.20000
C808        C  0.99228715  0.93270984  0.02233686    -0.12600
C809        C  0.97216139  0.96205114  0.03757396     0.04100
C810        C  0.97226576  0.00034725  0.02748090    -0.24700
H811        H  0.01261897  0.08620169  0.96000096     0.09100
H812        H  0.97866139  0.07096755  0.00461339     0.12800
H813        H  0.04550904  0.96549426  0.94936588     0.12700
H814        H  0.02671257  0.91828661  0.98525439     0.12400
H815        H  0.99278133  0.90313520  0.02997734     0.13000
H816        H  0.95749793  0.02332992  0.03949956     0.14900
C817        C  0.44561208  0.30591389  0.66019077    -0.05100
C818        C  0.41936090  0.27491426  0.66151583    -0.05000
C819        C  0.43399641  0.23659132  0.66253580    -0.23200
C820        C  0.47517116  0.22860590  0.66258041     0.19000
C821        C  0.50175722  0.25963657  0.66310370     0.16200
C822        C  0.48685850  0.29798304  0.66176254    -0.18200
C823        C  0.54288079  0.25176973  0.66386420    -0.20000
C824        C  0.55764887  0.21358165  0.66257326    -0.12600
C825        C  0.53163965  0.18250383  0.66018005     0.04100
C826        C  0.49025235  0.19026098  0.66099581    -0.24700
H827        H  0.38753226  0.28021247  0.66040407     0.09100
H828        H  0.41311943  0.21318171  0.66244940     0.12800
H829        H  0.50744344  0.32165593  0.66114487     0.12700
H830        H  0.56369072  0.27521750  0.66458578     0.12400
H831        H  0.58954663  0.20851174  0.66205352     0.13000
H832        H  0.46979603  0.16656533  0.65951326     0.14900
C833        C  0.45588691  0.97334012  0.64446055    -0.05100
C834        C  0.45384951  0.93599646  0.65615732    -0.05000
C835        C  0.42066513  0.91326545  0.65132577    -0.23200
C836        C  0.38917772  0.92735186  0.63445767     0.19000
C837        C  0.39080103  0.96496437  0.62284973     0.16200
C838        C  0.42384006  0.98776979  0.62813263    -0.18200
C839        C  0.35964524  0.97900122  0.60572732    -0.20000
C840        C  0.32692025  0.95606911  0.60027712    -0.12600
C841        C  0.32472468  0.91868415  0.61185885     0.04100
C842        C  0.35618025  0.90445290  0.62890259    -0.24700
H843        H  0.47825348  0.92403634  0.66857826     0.09100
H844        H  0.41992765  0.88446150  0.66038196     0.12800
H845        H  0.42512374  0.01629418  0.61863111     0.12700
H846        H  0.36054370  0.00775080  0.59658733     0.12400
H847        H  0.30310034  0.96783416  0.58720917     0.13000
H848        H  0.35490693  0.87571833  0.63805074     0.14900
C849        C  0.70704811  0.10406581  0.58709586    -0.05100
C850        C  0.70709262  0.14329959  0.57942525    -0.05000
C851        C  0.72724927  0.15501087  0.55480405    -0.23200
C852        C  0.74659953  0.12741538  0.53722924     0.19000
C853        C  0.74884211  0.08835648  0.54599739     0.16200
C854        C  0.73018051  0.07728443  0.57126097    -0.18200
C855        C  0.76643626  0.06028545  0.52812562    -0.20000
C856        C  0.77931146  0.07027645  0.50091704    -0.12600
C857        C  0.77602246  0.10871146  0.49141808     0.04100
C858        C  0.76105038  0.13750276  0.51017229    -0.24700
H859        H  0.68874769  0.16421550  0.59093183     0.09100
H860        H  0.72518063  0.18511511  0.54841572     0.12800
H861        H  0.72970197  0.04683607  0.57688291     0.12700
H862        H  0.76831053  0.03020348  0.53460741     0.12400
H863        H  0.79098313  0.04773934  0.48700575     0.13000
H864        H  0.75801745  0.16722983  0.50298160     0.14900
C865        C  0.70610696  0.77217004  0.60774490    -0.05100
C866        C  0.66885461  0.77270461  0.62153406    -0.05000
C867        C  0.64864857  0.80748113  0.62724586    -0.23200
C868        C  0.66500368  0.84259775  0.61910942     0.19000
C869        C  0.70147742  0.84263116  0.60403876     0.16200
C870        C  0.72190802  0.80737657  0.59846960    -0.18200
C871        C  0.71707584  0.87800747  0.59528608    -0.20000
C872        C  0.69679940  0.91283831  0.60152564    -0.12600
C873        C  0.66106740  0.91293538  0.61715193     0.04100
C874        C  0.64539647  0.87765484  0.62590169    -0.24700
H875        H  0.65573543  0.74617494  0.62888510     0.09100
H876        H  0.62051317  0.80691214  0.63850520     0.12800
H877        H  0.75052296  0.80749038  0.58781761     0.12700
H878        H  0.74483321  0.87874082  0.58357465     0.12400
H879        H  0.70919208  0.93978966  0.59431056     0.13000
H880        H  0.61742345  0.87744808  0.63741495     0.14900
C881        C  0.62655138  0.02867040  0.74096424    -0.05100
C882        C  0.66399865  0.03638469  0.75256319    -0.05000
C883        C  0.67397775  0.02329352  0.77999516    -0.23200
C884        C  0.64664590  0.00228838  0.79624080     0.19000
C885        C  0.60806669  0.99677461  0.78538260     0.16200
C886        C  0.59827151  0.01020904  0.75807391    -0.18200
C887        C  0.58071097  0.97541104  0.80109424    -0.20000
C888        C  0.59247182  0.95666965  0.82608482    -0.12600
C889        C  0.63141108  0.95978402  0.83632435     0.04100
C890        C  0.65792541  0.98422592  0.82203150    -0.24700
H891        H  0.68628737  0.05049767  0.73984618     0.09100
H892        H  0.70367725  0.02800120  0.78794366     0.12800
H893        H  0.56912865  0.00438360  0.74947589     0.12700
H894        H  0.55095461  0.97109008  0.79310407     0.12400
H895        H  0.57183674  0.93766303  0.83652679     0.13000
H896        H  0.68833912  0.98605172  0.82940419     0.14900
C897        C  0.52827764  0.67704204  0.34189936    -0.05100
C898        C  0.52593129  0.69309123  0.31445992    -0.05000
C899        C  0.50860297  0.73006445  0.31008643    -0.23200
C900        C  0.49243410  0.75136200  0.33300344     0.19000
C901        C  0.49344397  0.73465273  0.36042760     0.16200
C902        C  0.51169091  0.69809529  0.36473934    -0.18200
C903        C  0.47633256  0.75477621  0.38330341    -0.20000
C904        C  0.45924228  0.79150290  0.37936556    -0.12600
C905        C  0.45906414  0.80958238  0.35249945     0.04100
C906        C  0.47554940  0.78900276  0.32917408    -0.24700
H907        H  0.53819929  0.67733104  0.29644654     0.09100
H908        H  0.50790481  0.74198436  0.28881588     0.12800
H909        H  0.51254067  0.68576581  0.38591035     0.12700
H910        H  0.47645927  0.74224804  0.40440059     0.12400
H911        H  0.44687027  0.80615659  0.39783128     0.13000
H912        H  0.47544392  0.80219098  0.30830118     0.14900
C913        C  0.27388239  0.90285859  0.40190734    -0.05100
C914        C  0.24762357  0.93304717  0.41023927    -0.05000
C915        C  0.22485767  0.92984880  0.43513652    -0.23200
C916        C  0.22789286  0.89629212  0.45192476     0.19000
C917        C  0.25133538  0.86450166  0.44197715     0.16200
C918        C  0.27410493  0.86800892  0.41714406    -0.18200
C919        C  0.25399317  0.83058527  0.45805826    -0.20000
C920        C  0.23561976  0.82877143  0.48453207    -0.12600
C921        C  0.21459172  0.86100122  0.49586247     0.04100
C922        C  0.20994616  0.89456840  0.47908222    -0.24700
H923        H  0.24752089  0.96042840  0.39902624     0.09100
H924        H  0.20671371  0.95441767  0.44208659     0.12800
H925        H  0.29458766  0.84475735  0.41094785     0.12700
H926        H  0.27156724  0.80586577  0.45064489     0.12400
H927        H  0.23979415  0.80252479  0.49685765     0.13000
H928        H  0.19357322  0.91948681  0.48742837     0.14900
C929        C  0.53559901  0.00838296  0.33594295    -0.05100
C930        C  0.56866538  0.98277566  0.33736741    -0.05000
C931        C  0.60614079  0.99618470  0.34521421    -0.23200
C932        C  0.61119075  0.03543261  0.35179196     0.19000
C933        C  0.57848097  0.06160083  0.34904133     0.16200
C934        C  0.54121027  0.04803067  0.34096920    -0.18200
C935        C  0.58316610  0.10085342  0.35522925    -0.20000
C936        C  0.61987952  0.11418396  0.36416194    -0.12600
C937        C  0.65267594  0.08856591  0.36741971     0.04100
C938        C  0.64812037  0.04901601  0.36125062    -0.24700
H939        H  0.56514122  0.95205295  0.33393261     0.09100
H940        H  0.63086756  0.97566396  0.34696976     0.12800
H941        H  0.51606229  0.06820602  0.33991683     0.12700
H942        H  0.55839318  0.12129268  0.35320110     0.12400
H943        H  0.62262890  0.14478029  0.36857884     0.13000
H944        H  0.67337041  0.02912266  0.36319684     0.14900
C945        C  0.45795352  0.97515969  0.45186991    -0.05100
C946        C  0.46266770  0.94572500  0.47226202    -0.05000
C947        C  0.47996089  0.95351908  0.49854660    -0.23200
C948        C  0.49257872  0.99093122  0.50493097     0.19000
C949        C  0.48721915  0.02097295  0.48485626     0.16200
C950        C  0.47021316  0.01283962  0.45844869    -0.18200
C951        C  0.49902795  0.05863990  0.49153261    -0.20000
C952        C  0.51632125  0.06638829  0.51784893    -0.12600
C953        C  0.52272428  0.03640476  0.53743232     0.04100
C954        C  0.51071494  0.99879273  0.53097307    -0.24700
H955        H  0.45327187  0.91657643  0.46782509     0.09100
H956        H  0.48359073  0.93027002  0.51383777     0.12800
H957        H  0.46649316  0.03596614  0.44305563     0.12700
H958        H  0.49498684  0.08201591  0.47639613     0.12400
H959        H  0.52559459  0.09547793  0.52265213     0.13000
H960        H  0.51540923  0.97573472  0.54632895     0.14900
C961        C  0.57029670  0.29356857  0.08898334    -0.05100
C962        C  0.54020358  0.31463939  0.07462675    -0.05000
C963        C  0.50227373  0.29913759  0.07113898    -0.23200
C964        C  0.49365375  0.26246039  0.08221486     0.19000
C965        C  0.52386859  0.24115029  0.09651540     0.16200
C966        C  0.56176386  0.25657660  0.09955289    -0.18200
C967        C  0.51559968  0.20499047  0.10825344    -0.20000
C968        C  0.47741322  0.19040040  0.10662204    -0.12600
C969        C  0.44678494  0.21124004  0.09278271     0.04100
C970        C  0.45524503  0.24708373  0.08004935    -0.24700
H971        H  0.54588899  0.34318038  0.06625165     0.09100
H972        H  0.47955342  0.31605813  0.06017394     0.12800
H973        H  0.58441761  0.23991194  0.11081929     0.12700
H974        H  0.53846434  0.18834745  0.11930455     0.12400
H975        H  0.47164242  0.16282166  0.11658974     0.13000
H976        H  0.43167634  0.26366373  0.06970210     0.14900
C977        C  0.16890603  0.41434881  0.12581379    -0.05100
C978        C  0.16325580  0.38619347  0.14688112    -0.05000
C979        C  0.18055279  0.34937166  0.14422397    -0.23200
C980        C  0.20395566  0.33996546  0.12046482     0.19000
C981        C  0.21075023  0.36800441  0.09931518     0.16200
C982        C  0.19308849  0.40513902  0.10208437    -0.18200
C983        C  0.23483882  0.35817503  0.07577921    -0.20000
C984        C  0.25167982  0.32075828  0.07321322    -0.12600
C985        C  0.24416230  0.29263983  0.09394898     0.04100
C986        C  0.22045492  0.30272868  0.11759113    -0.24700
H987        H  0.14489934  0.39239671  0.16534354     0.09100
H988        H  0.17532114  0.32812127  0.16066066     0.12800
H989        H  0.19780916  0.42658232  0.08569926     0.12700
H990        H  0.24055017  0.37933522  0.05938433     0.12400
H991        H  0.27004927  0.31367786  0.05492006     0.13000
H992        H  0.21498798  0.28156272  0.13406952     0.14900
C993        C  0.36449332  0.96114574  0.24539446    -0.05100
C994        C  0.32473528  0.96256952  0.23606216    -0.05000
C995        C  0.31465479  0.97767008  0.20933002    -0.23200
C996        C  0.34397851  0.99254326  0.19139124     0.19000
C997        C  0.38427963  0.98980480  0.19981969     0.16200
C998        C  0.39437155  0.97348122  0.22650408    -0.18200
C999        C  0.41341380  0.00608137  0.18233968    -0.20000
C1000       C  0.40244100  0.02753124  0.15815779    -0.12600
C1001       C  0.36230349  0.03192022  0.15023220     0.04100
C1002       C  0.33336152  0.01281177  0.16634190    -0.24700
H1003       H  0.30107059  0.95319444  0.24991473     0.09100
H1004       H  0.28359811  0.97943845  0.20328695     0.12800
H1005       H  0.42512327  0.97302289  0.23335398     0.12700
H1006       H  0.44447115  0.00445925  0.18838818     0.12400
H1007       H  0.42512974  0.04280008  0.14659194     0.13000
H1008       H  0.30220480  0.01714058  0.16106372     0.14900
C1009       C  0.16887143  0.08857641  0.10939215    -0.05100
C1010       C  0.13444990  0.11239969  0.11119974    -0.05000
C1011       C  0.09808757  0.09716194  0.11914804    -0.23200
C1012       C  0.09542050  0.05779980  0.12561815     0.19000
C1013       C  0.12952490  0.03322545  0.12309416     0.16200
C1014       C  0.16605530  0.04873080  0.11478273    -0.18200
C1015       C  0.12648258  0.99370534  0.12924702    -0.20000
C1016       C  0.08989514  0.97861090  0.13724755    -0.12600
C1017       C  0.05589209  0.00288565  0.13974739     0.04100
C1018       C  0.05906086  0.04259604  0.13427123    -0.24700
H1019       H  0.13584000  0.14318083  0.10706541     0.09100
H1020       H  0.07217757  0.11632367  0.12068468     0.12800
H1021       H  0.19247867  0.03017652  0.11367919     0.12700
H1022       H  0.15222119  0.97437513  0.12743716     0.12400
H1023       H  0.08798185  0.94778366  0.14101228     0.13000
H1024       H  0.03281331  0.06139418  0.13547854     0.14900
C1025       C  0.27614422  0.13522795  0.99733435    -0.05100
C1026       C  0.24963606  0.16584181  0.99020395    -0.05000
C1027       C  0.22788898  0.16546449  0.96503599    -0.23200
C1028       C  0.23260344  0.13478697  0.94585780     0.19000
C1029       C  0.26081868  0.10479146  0.95162279     0.16200
C1030       C  0.28203561  0.10473182  0.97768571    -0.18200
C1031       C  0.26598640  0.07484448  0.93160646    -0.20000
C1032       C  0.24153386  0.07320842  0.90742690    -0.12600
C1033       C  0.21113363  0.10122295  0.90291414     0.04100
C1034       C  0.20797986  0.13272744  0.92178584    -0.24700
H1035       H  0.24428601  0.18958640  0.00487305     0.09100
H1036       H  0.20661373  0.18882497  0.96090946     0.12800
H1037       H  0.30252469  0.08107762  0.98275024     0.12700
H1038       H  0.28773411  0.05176845  0.93526098     0.12400
H1039       H  0.24430081  0.04832347  0.89350456     0.13000
H1040       H  0.18461460  0.15447471  0.91866428     0.14900
C1041       C  0.93451607  0.20449565  0.40156684    -0.05100
C1042       C  0.95304199  0.20634114  0.42826756    -0.05000
C1043       C  0.98959620  0.22477724  0.43145625    -0.23200
C1044       C  0.00778353  0.24281524  0.40816487     0.19000
C1045       C  0.98888543  0.24171421  0.38139558     0.16200
C1046       C  0.95296511  0.22204278  0.37816920    -0.18200
C1047       C  0.00594370  0.26070602  0.35826376    -0.20000
C1048       C  0.04162706  0.28016016  0.36137055    -0.12600
C1049       C  0.06171046  0.28078902  0.38759691     0.04100
C1050       C  0.04433992  0.26197919  0.41107106    -0.24700
H1051       H  0.93929719  0.19333888  0.44666217     0.09100
H1052       H  0.00335604  0.22537840  0.45222674     0.12800
H1053       H  0.93861011  0.22153637  0.35757741     0.12700
H1054       H  0.99172717  0.26042704  0.33763549     0.12400
H1055       H  0.05404245  0.29397279  0.34281434     0.13000
H1056       H  0.05924719  0.26206901  0.43144750     0.14900
C1057       C  0.17106822  0.46250362  0.33232402    -0.05100
C1058       C  0.20589948  0.47839463  0.32109926    -0.05000
C1059       C  0.20428846  0.50246546  0.29710748    -0.23200
C1060       C  0.16767770  0.51155135  0.28418412     0.19000
C1061       C  0.13227634  0.49854860  0.29708740     0.16200
C1062       C  0.13421126  0.47376918  0.32079797    -0.18200
C1063       C  0.09556796  0.50814991  0.28483073    -0.20000
C1064       C  0.09397408  0.52699979  0.25867850    -0.12600
C1065       C  0.12894945  0.53653556  0.24402054     0.04100
C1066       C  0.16585906  0.53064042  0.25757870    -0.24700
H1067       H  0.23470349  0.46969450  0.32951687     0.09100
H1068       H  0.23179847  0.51231526  0.28785226     0.12800
H1069       H  0.10727980  0.46144612  0.32925514     0.12700
H1070       H  0.06811741  0.49903927  0.29461225     0.12400
H1071       H  0.06520605  0.53141790  0.24872176     0.13000
H1072       H  0.19303357  0.53749358  0.24641321     0.14900
C1073       C  0.26193888  0.20172212  0.41103317    -0.05100
C1074       C  0.29881002  0.19441954  0.42403905    -0.05000
C1075       C  0.32053822  0.16043536  0.41801599    -0.23200
C1076       C  0.30627717  0.13400594  0.39806824     0.19000
C1077       C  0.26847102  0.14045911  0.38567498     0.16200
C1078       C  0.24616505  0.17396834  0.39271036    -0.18200
C1079       C  0.25467890  0.11446732  0.36524041    -0.20000
C1080       C  0.27840494  0.08269863  0.35680140    -0.12600
C1081       C  0.31637525  0.07646260  0.36857174     0.04100
C1082       C  0.32987284  0.10209634  0.38949699    -0.24700
H1083       H  0.31186131  0.21615355  0.43748365     0.09100
H1084       H  0.34947681  0.15592856  0.42769018     0.12800
H1085       H  0.21836605  0.18027835  0.38183440     0.12700
H1086       H  0.22581548  0.11903445  0.35546938     0.12400
H1087       H  0.26713792  0.06314674  0.34091006     0.13000
H1088       H  0.35884479  0.09733927  0.39909565     0.14900
C1089       C  0.28492958  0.20292465  0.20407029    -0.05100
C1090       C  0.31607426  0.20763540  0.22344085    -0.05000
C1091       C  0.30890276  0.22579040  0.24951043    -0.23200
C1092       C  0.27057715  0.23981690  0.25637134     0.19000
C1093       C  0.23902459  0.23498371  0.23711656     0.16200
C1094       C  0.24631810  0.21630197  0.21125384    -0.18200
C1095       C  0.20080975  0.24946674  0.24381907    -0.20000
C1096       C  0.19394270  0.26879377  0.26947476    -0.12600
C1097       C  0.22514550  0.27365361  0.28879044     0.04100
C1098       C  0.26341615  0.25895335  0.28206865    -0.24700
H1099       H  0.34601783  0.19764826  0.21833373     0.09100
H1100       H  0.33338135  0.22933195  0.26411634     0.12800
H1101       H  0.22201757  0.21316940  0.19641772     0.12700
H1102       H  0.17634306  0.24601360  0.22918819     0.12400
H1103       H  0.16422152  0.27973619  0.27424378     0.13000
H1104       H  0.28783498  0.26258750  0.29673090     0.14900
C1105       C  0.34676856  0.39481783  0.37343821    -0.05100
C1106       C  0.38071118  0.37042003  0.37478988    -0.05000
C1107       C  0.41801947  0.38409847  0.36740521    -0.23200
C1108       C  0.42197040  0.42227663  0.35800134     0.19000
C1109       C  0.38796099  0.44693126  0.35585338     0.16200
C1110       C  0.35052329  0.43317963  0.36396205    -0.18200
C1111       C  0.39217991  0.48490815  0.34582695    -0.20000
C1112       C  0.42995524  0.49890141  0.33944731    -0.12600
C1113       C  0.46406253  0.47517224  0.34310552     0.04100
C1114       C  0.45959756  0.43646316  0.35152387    -0.24700
H1115       H  0.37834040  0.34063917  0.38167803     0.09100
H1116       H  0.44378377  0.36479616  0.36904054     0.12800
H1117       H  0.32428649  0.45186302  0.36221444     0.12700
H1118       H  0.36643710  0.50414066  0.34376279     0.12400
H1119       H  0.43266890  0.52893202  0.33329739     0.13000
H1120       H  0.48568996  0.41781358  0.35431950     0.14900
C1121       C  0.27825110  0.39353958  0.58612165    -0.05100
C1122       C  0.27634110  0.35352568  0.58121250    -0.05000
C1123       C  0.25629824  0.33948135  0.55727774    -0.23200
C1124       C  0.23821023  0.36531857  0.53781994     0.19000
C1125       C  0.23743192  0.40535931  0.54396810     0.16200
C1126       C  0.25687893  0.41904231  0.56818545    -0.18200
C1127       C  0.22013703  0.43151569  0.52461187    -0.20000
C1128       C  0.20680037  0.41863915  0.49827590    -0.12600
C1129       C  0.20963810  0.37925800  0.49094148     0.04100
C1130       C  0.22361981  0.35236798  0.51143271    -0.24700
H1131       H  0.29293567  0.33337881  0.59453544     0.09100
H1132       H  0.25708740  0.30864179  0.55306991     0.12800
H1133       H  0.25826687  0.44999561  0.57179357     0.12700
H1134       H  0.21902272  0.46227461  0.52914965     0.12400
H1135       H  0.19581906  0.43981713  0.48306412     0.13000
H1136       H  0.22619848  0.32192229  0.50599326     0.14900
loop_ 
_geom_bond_atom_site_label_1 
_geom_bond_atom_site_label_2 
_geom_bond_distance 
_geom_bond_site_symmetry_2 
_ccdc_geom_bond_type 
Zn1           O5   1.974       .  S
Zn1           O6   2.071       .  S
Zn1          O10   2.055       .  S
Zn1          O17   2.053       .  S
Zn2           O5   1.953       .  S
Zn2           O7   2.028       .  S
Zn2           O9   2.027       .  S
Zn2          O13   2.022       .  S
Zn3           O5   1.961       .  S
Zn3           O8   2.039       .  S
Zn3          O11   2.038       .  S
Zn3          O14   2.046       .  S
Zn4           O5   1.938       .  S
Zn4          O12   1.976       .  S
Zn4          O15   1.963       .  S
Zn4          O16   1.964       .  S
O6           C18   1.280       .  A
O7           C19   1.276       .  A
O8           C20   1.282       .  A
O9           C18   1.277       .  A
O10          C20   1.281       .  A
O11          C19   1.276       .  A
O12          C21   1.266       .  A
O13          C22   1.273       .  A
O14          C21   1.273       .  A
O15          C22   1.267       .  A
O16          C23   1.266       .  A
O17          C23   1.275       .  A
C18        C1049   1.498       .  S
C19        C1057   1.479       .  S
C20        C1129   1.487       .  S
C21        C1105   1.476       .  S
C22        C1097   1.473       .  S
C23        C1073   1.464       .  S
Zn24         O28   1.979       .  S
Zn24         O29   2.103       .  S
Zn24         O33   2.105       .  S
Zn24         O40   2.052       .  S
Zn25         O28   1.931       .  S
Zn25         O30   2.005       .  S
Zn25         O32   1.994       .  S
Zn25         O36   2.024       .  S
Zn26         O28   1.958       .  S
Zn26         O31   2.012       .  S
Zn26         O34   2.051       .  S
Zn26         O37   2.051       .  S
Zn27         O28   1.922       .  S
Zn27         O35   1.959       .  S
Zn27         O38   1.965       .  S
Zn27         O39   1.963       .  S
O29          C41   1.286       .  A
O30          C42   1.274       .  A
O31          C43   1.279       .  A
O32          C41   1.272       .  A
O33          C43   1.288       .  A
O34          C42   1.278       .  A
O35          C44   1.266       .  A
O36          C45   1.274       .  A
O37          C44   1.274       .  A
O38          C45   1.267       .  A
O39          C46   1.266       .  A
O40          C46   1.275       .  A
C41        C1001   1.486       .  S
C42         C969   1.481       .  S
C43        C1025   1.493   1_554  S
C44         C985   1.478       .  S
C45        C1089   1.473       .  S
C46        C1009   1.477       .  S
Zn47         O51   1.962       .  S
Zn47         O52   2.053       .  S
Zn47         O56   2.050       .  S
Zn47         O63   2.026   1_565  S
Zn48         O51   1.931       .  S
Zn48         O53   1.992       .  S
Zn48         O55   1.989       .  S
Zn48         O59   2.027       .  S
Zn49         O51   1.963       .  S
Zn49         O54   2.077       .  S
Zn49         O57   2.095       .  S
Zn49         O60   2.063       .  S
Zn50         O51   1.941       .  S
Zn50         O58   1.987   1_565  S
Zn50         O61   1.988       .  S
Zn50         O62   1.991   1_565  S
O52          C64   1.279       .  A
O53          C65   1.273       .  A
O54          C66   1.284       .  A
O55          C64   1.272       .  A
O56          C66   1.283       .  A
O57          C65   1.283       .  A
O58          C67   1.272   1_545  A
O59          C68   1.273       .  A
O60          C67   1.280       .  A
O61          C68   1.268       .  A
O62          C69   1.270       .  A
O63          C69   1.272       .  A
C64         C913   1.475       .  S
C65         C905   1.497       .  S
C66         C993   1.500       .  S
C67         C929   1.485   1_565  S
C68         C945   1.481       .  S
C69        C1081   1.480       .  S
Zn70         O74   1.914       .  S
Zn70         O75   1.946       .  S
Zn70         O79   1.989       .  S
Zn70         O86   1.983   1_545  S
Zn71         O74   1.968       .  S
Zn71         O76   2.064       .  S
Zn71         O78   2.099       .  S
Zn71         O82   2.097       .  S
Zn72         O74   1.950       .  S
Zn72         O77   2.029       .  S
Zn72         O80   2.014       .  S
Zn72         O83   1.999       .  S
Zn73         O74   1.939   1_565  S
Zn73         O81   2.018       .  S
Zn73         O84   1.999   1_565  S
Zn73         O85   2.040       .  S
O75          C87   1.268       .  A
O76          C88   1.281       .  A
O77          C89   1.273       .  A
O78          C87   1.284       .  A
O79          C89   1.269       .  A
O80          C88   1.274       .  A
O81          C90   1.274       .  A
O82          C91   1.286       .  A
O83          C90   1.273   1_545  A
O84          C91   1.276       .  A
O85          C92   1.274       .  A
O86          C92   1.266       .  A
C87         C849   1.475       .  S
C88         C825   1.489       .  S
C89         C953   1.464       .  S
C90         C833   1.480       .  S
C91         C881   1.489       .  S
C92         C873   1.476       .  S
Zn93         O97   1.972       .  S
Zn93         O98   2.075       .  S
Zn93        O102   2.117       .  S
Zn93        O109   2.108       .  S
Zn94         O97   1.945       .  S
Zn94         O99   2.019       .  S
Zn94        O101   1.987       .  S
Zn94        O105   1.991   1_655  S
Zn95         O97   1.911       .  S
Zn95        O100   1.961       .  S
Zn95        O103   1.969       .  S
Zn95        O106   1.983   1_565  S
Zn96         O97   1.926       .  S
Zn96        O104   2.039   1_565  S
Zn96        O107   2.031   1_565  S
Zn96        O108   1.979       .  S
O98         C110   1.280       .  A
O99         C111   1.273       .  A
O100        C112   1.270       .  A
O101        C110   1.271       .  A
O102        C112   1.287       .  A
O103        C111   1.268       .  A
O104        C113   1.273       .  A
O105        C114   1.269       .  A
O106        C113   1.267       .  A
O107        C114   1.276   1_645  A
O108        C115   1.276       .  A
O109        C115   1.288       .  A
C110        C745   1.483       .  S
C111        C809   1.467       .  S
C112        C761   1.488       .  S
C113        C769   1.474       .  S
C114       C1017   1.475   1_565  S
C115        C785   1.488       .  S
Zn116       O120   1.935   1_565  S
Zn116       O121   1.985       .  S
Zn116       O125   1.999       .  S
Zn116       O132   1.966   1_565  S
Zn117       O120   1.973       .  S
Zn117       O122   2.100       .  S
Zn117       O124   2.042   1_545  S
Zn117       O128   2.086       .  S
Zn118       O120   1.930       .  S
Zn118       O123   2.036       .  S
Zn118       O126   1.996       .  S
Zn118       O129   2.028       .  S
Zn119       O120   1.944       .  S
Zn119       O127   2.039       .  S
Zn119       O130   2.008       .  S
Zn119       O131   2.028       .  S
O121        C133   1.268       .  A
O122        C134   1.287       .  A
O123        C135   1.274   1_445  A
O124        C133   1.274       .  A
O125        C135   1.271   1_455  A
O126        C134   1.276       .  A
O127        C136   1.277       .  A
O128        C137   1.286       .  A
O129        C136   1.275       .  A
O130        C137   1.276       .  A
O131        C138   1.274       .  A
O132        C138   1.268       .  A
C133        C705   1.481       .  S
C134        C729   1.496       .  S
C135        C689   1.473       .  S
C136        C673   1.490       .  S
C137       C1033   1.491       .  S
C138        C801   1.471       .  S
Zn139       O143   1.960       .  S
Zn139       O144   2.025       .  S
Zn139       O148   2.041       .  S
Zn139       O155   2.031       .  S
Zn140       O143   1.971       .  S
Zn140       O145   2.057       .  S
Zn140       O147   2.046       .  S
Zn140       O151   2.062       .  S
Zn141       O143   1.959       .  S
Zn141       O146   2.048       .  S
Zn141       O149   2.021       .  S
Zn141       O152   2.051       .  S
Zn142       O143   1.932       .  S
Zn142       O150   1.969       .  S
Zn142       O153   1.976       .  S
Zn142       O154   1.953       .  S
O144        C156   1.277       .  A
O145        C157   1.284       .  A
O146        C158   1.277       .  A
O147        C156   1.279       .  A
O148        C158   1.277       .  A
O149        C157   1.278       .  A
O150        C159   1.266       .  A
O151        C160   1.275       .  A
O152        C159   1.275       .  A
O153        C160   1.266       .  A
O154        C161   1.267       .  A
O155        C161   1.273       .  A
C156        C793   1.481       .  S
C157        C857   1.484       .  S
C158       C1041   1.490       .  S
C159        C649   1.465       .  S
C160        C937   1.483       .  S
C161        C665   1.471       .  S
Zn162       O166   1.954       .  S
Zn162       O167   2.060       .  S
Zn162       O171   2.078       .  S
Zn162       O178   2.091       .  S
Zn163       O166   1.919       .  S
Zn163       O168   1.998       .  S
Zn163       O170   1.994       .  S
Zn163       O174   2.001       .  S
Zn164       O166   1.933       .  S
Zn164       O169   1.995       .  S
Zn164       O172   2.032       .  S
Zn164       O175   2.044       .  S
Zn165       O166   1.910       .  S
Zn165       O173   1.965       .  S
Zn165       O176   1.993       .  S
Zn165       O177   1.968       .  S
O167        C179   1.279       .  A
O168        C180   1.272       .  A
O169        C181   1.275       .  A
O170        C179   1.274       .  A
O171        C181   1.285       .  A
O172        C180   1.276       .  A
O173        C182   1.267       .  A
O174        C183   1.271       .  A
O175        C182   1.275       .  A
O176        C183   1.269       .  A
O177        C184   1.271       .  A
O178        C184   1.284       .  A
C179        C961   1.488       .  S
C180        C777   1.473       .  S
C181        C625   1.483       .  S
C182        C609   1.470       .  S
C183        C657   1.465       .  S
C184        C593   1.482       .  S
Zn185       O189   1.933       .  S
Zn185       O190   1.993       .  S
Zn185       O194   2.012       .  S
Zn185       O201   2.000       .  S
Zn186       O189   1.970       .  S
Zn186       O191   2.036       .  S
Zn186       O193   2.068       .  S
Zn186       O197   2.075       .  S
Zn187       O189   1.928       .  S
Zn187       O192   1.964       .  S
Zn187       O195   1.976       .  S
Zn187       O198   1.978       .  S
Zn188       O189   1.944       .  S
Zn188       O196   2.051       .  S
Zn188       O199   1.996       .  S
Zn188       O200   2.044       .  S
O190        C202   1.274       .  A
O191        C203   1.274       .  A
O192        C204   1.267       .  A
O193        C202   1.281       .  A
O194        C204   1.271       .  A
O195        C203   1.268       .  A
O196        C205   1.277       .  A
O197        C206   1.284       .  A
O198        C205   1.270       .  A
O199        C206   1.276       .  A
O200        C207   1.276       .  A
O201        C207   1.273       .  A
C202        C537   1.481       .  S
C203        C569   1.479       .  S
C204        C545   1.472       .  S
C205        C865   1.484       .  S
C206        C577   1.487       .  S
C207        C513   1.477       .  S
Zn208       O212   1.958       .  S
Zn208       O213   2.057       .  S
Zn208       O217   2.067       .  S
Zn208       O224   2.047       .  S
Zn209       O212   1.960       .  S
Zn209       O214   2.074       .  S
Zn209       O216   2.054       .  S
Zn209       O220   2.075       .  S
Zn210       O212   1.935       .  S
Zn210       O215   2.001       .  S
Zn210       O218   2.014       .  S
Zn210       O221   2.005       .  S
Zn211       O212   1.932       .  S
Zn211       O219   1.972       .  S
Zn211       O222   1.971       .  S
Zn211       O223   1.980       .  S
O213        C225   1.286       .  A
O214        C226   1.280       .  A
O215        C227   1.274       .  A
O216        C225   1.283       .  A
O217        C227   1.281       .  A
O218        C226   1.274       .  A
O219        C228   1.268       .  A
O220        C229   1.279       .  A
O221        C228   1.272       .  A
O222        C229   1.268       .  A
O223        C230   1.267       .  A
O224        C230   1.274       .  A
C225        C753   1.496       .  S
C226        C489   1.488       .  S
C227        C889   1.481       .  S
C228        C553   1.471       .  S
C229        C505   1.486       .  S
C230        C697   1.484       .  S
Zn231       O235   1.935       .  S
Zn231       O236   1.977       .  S
Zn231       O240   1.992       .  S
Zn231       O247   1.981       .  S
Zn232       O235   1.954       .  S
Zn232       O237   2.024       .  S
Zn232       O239   2.043       .  S
Zn232       O243   2.040       .  S
Zn233       O235   1.955       .  S
Zn233       O238   2.033       .  S
Zn233       O241   2.028       .  S
Zn233       O244   2.034       .  S
Zn234       O235   1.954       .  S
Zn234       O242   2.039       .  S
Zn234       O245   2.048       .  S
Zn234       O246   2.051       .  S
O236        C248   1.269       .  A
O237        C249   1.277       .  A
O238        C250   1.272       .  A
O239        C248   1.275       .  A
O240        C250   1.269       .  A
O241        C249   1.277       .  A
O242        C251   1.279       .  A
O243        C252   1.278       .  A
O244        C251   1.281       .  A
O245        C252   1.277       .  A
O246        C253   1.278       .  A
O247        C253   1.271       .  A
C248        C465   1.479       .  S
C249        C585   1.477       .  S
C250        C641   1.483       .  S
C251        C601   1.489       .  S
C252        C897   1.490       .  S
C253       C1113   1.479       .  S
Zn254       O258   1.943       .  S
Zn254       O259   2.014       .  S
Zn254       O263   2.004       .  S
Zn254       O270   1.991       .  S
Zn255       O258   1.925       .  S
Zn255       O260   1.977       .  S
Zn255       O262   2.009       .  S
Zn255       O266   1.989       .  S
Zn256       O258   1.970       .  S
Zn256       O261   2.068       .  S
Zn256       O264   2.095       .  S
Zn256       O267   2.100       .  S
Zn257       O258   1.941       .  S
Zn257       O265   1.994       .  S
Zn257       O268   2.040       .  S
Zn257       O269   2.024       .  S
O259        C271   1.274       .  A
O260        C272   1.272       .  A
O261        C273   1.280       .  A
O262        C271   1.272       .  A
O263        C273   1.273       .  A
O264        C272   1.284       .  A
O265        C274   1.275       .  A
O266        C275   1.269       .  A
O267        C274   1.286       .  A
O268        C275   1.275       .  A
O269        C276   1.275       .  A
O270        C276   1.270       .  A
C271        C473   1.476       .  S
C272       C1121   1.483       .  S
C273        C817   1.487       .  S
C274        C449   1.487       .  S
C275        C441   1.482       .  S
C276        C561   1.478       .  S
Zn277       O281   1.956       .  S
Zn277       O282   2.071       .  S
Zn277       O286   2.082       .  S
Zn277       O293   2.024       .  S
Zn278       O281   1.931       .  S
Zn278       O283   2.014       .  S
Zn278       O285   2.003       .  S
Zn278       O289   2.020       .  S
Zn279       O281   1.927       .  S
Zn279       O284   1.994       .  S
Zn279       O287   2.034       .  S
Zn279       O290   2.044       .  S
Zn280       O281   1.931       .  S
Zn280       O288   1.981       .  S
Zn280       O291   1.963       .  S
Zn280       O292   1.989       .  S
O282        C294   1.283       .  A
O283        C295   1.275       .  A
O284        C296   1.276       .  A
O285        C294   1.275       .  A
O286        C296   1.285       .  A
O287        C295   1.275       .  A
O288        C297   1.270       .  A
O289        C298   1.273       .  A
O290        C297   1.276       .  A
O291        C298   1.268       .  A
O292        C299   1.269       .  A
O293        C299   1.273       .  A
C294        C721   1.482       .  S
C295        C521   1.483       .  S
C296        C921   1.486       .  S
C297        C433   1.480       .  S
C298        C417   1.473       .  S
C299        C841   1.480       .  S
Zn300       O304   1.973       .  S
Zn300       O305   2.043       .  S
Zn300       O309   2.060       .  S
Zn300       O316   2.067       .  S
Zn301       O304   1.963       .  S
Zn301       O306   2.035       .  S
Zn301       O308   2.046       .  S
Zn301       O312   2.065       .  S
Zn302       O304   1.942       .  S
Zn302       O307   1.972       .  S
Zn302       O310   1.987       .  S
Zn302       O313   1.979       .  S
Zn303       O304   1.938       .  S
Zn303       O311   2.013       .  S
Zn303       O314   2.003       .  S
Zn303       O315   2.016       .  S
O305        C317   1.280       .  A
O306        C318   1.273       .  A
O307        C319   1.267       .  A
O308        C317   1.283       .  A
O309        C319   1.276       .  A
O310        C318   1.268       .  A
O311        C320   1.273       .  A
O312        C321   1.278       .  A
O313        C320   1.269       .  A
O314        C321   1.272       .  A
O315        C322   1.275       .  A
O316        C322   1.279       .  A
C317        C409   1.487       .  S
C318        C393   1.470       .  S
C319        C713   1.466       .  S
C320        C425   1.473       .  S
C321        C457   1.479       .  S
C322        C481   1.496       .  S
Zn323       O327   1.972       .  S
Zn323       O328   2.107       .  S
Zn323       O332   2.101       .  S
Zn323       O339   2.089       .  S
Zn324       O327   1.920       .  S
Zn324       O329   2.043       .  S
Zn324       O331   1.985       .  S
Zn324       O335   2.023       .  S
Zn325       O327   1.917       .  S
Zn325       O330   1.950       .  S
Zn325       O333   1.994       .  S
Zn325       O336   2.012       .  S
Zn326       O327   1.920       .  S
Zn326       O334   1.973       .  S
Zn326       O337   1.995       .  S
Zn326       O338   1.968       .  S
O328        C340   1.288       .  A
O329        C341   1.275       .  A
O330        C342   1.271       .  A
O331        C340   1.276       .  A
O332        C342   1.287       .  A
O333        C341   1.268       .  A
O334        C343   1.268       .  A
O335        C344   1.274       .  A
O336        C343   1.273       .  A
O337        C344   1.271       .  A
O338        C345   1.268       .  A
O339        C345   1.280       .  A
C340        C529   1.487       .  S
C341        C497   1.477       .  S
C342        C633   1.474       .  S
C343        C369   1.467       .  S
C344        C385   1.474   1_655  S
C345        C681   1.481       .  S
Zn346       O350   1.919       .  S
Zn346       O351   1.962       .  S
Zn346       O355   2.012       .  S
Zn346       O362   2.007       .  S
Zn347       O350   1.968       .  S
Zn347       O352   2.109       .  S
Zn347       O354   2.117       .  S
Zn347       O358   2.064       .  S
Zn348       O350   1.920       .  S
Zn348       O353   2.006       .  S
Zn348       O356   1.959       .  S
Zn348       O359   1.993       .  S
Zn349       O350   1.943       .  S
Zn349       O357   1.995       .  S
Zn349       O360   1.998       .  S
Zn349       O361   1.997       .  S
O351        C363   1.272       .  A
O352        C364   1.286       .  A
O353        C365   1.269       .  A
O354        C363   1.287       .  A
O355        C365   1.272       .  A
O356        C364   1.270       .  A
O357        C366   1.271       .  A
O358        C367   1.281       .  A
O359        C366   1.272       .  A
O360        C367   1.273       .  A
O361        C368   1.270       .  A
O362        C368   1.271       .  A
C363       C1065   1.483       .  S
C364        C401   1.481       .  S
C365        C977   1.481       .  S
C366        C377   1.473       .  S
C367        C737   1.485       .  S
C368        C617   1.468   1_455  S
C369        C370   1.404   1_655  A
C369        C374   1.403       .  A
C370        C371   1.392       .  A
C370        H379   1.083       .  S
C371        C372   1.399   1_556  A
C371        H380   1.084       .  S
C372        C378   1.396       .  A
C372        C373   1.414   1_454  A
C373        C375   1.401   1_556  A
C373        C374   1.400       .  A
C374        H381   1.084       .  S
C375        C376   1.396       .  A
C375        H382   1.084       .  S
C376        C377   1.406   1_655  A
C376        H383   1.083       .  S
C377        C378   1.404       .  A
C378        H384   1.084       .  S
C385        C386   1.405       .  A
C385        C390   1.405       .  A
C386        C387   1.396       .  A
C386        H395   1.083       .  S
C387        C388   1.401       .  A
C387        H396   1.084       .  S
C388        C394   1.402       .  A
C388        C389   1.415       .  A
C389        C391   1.402       .  A
C389        C390   1.402       .  A
C390        H397   1.084       .  S
C391        C392   1.397       .  A
C391        H398   1.084       .  S
C392        C393   1.404       .  A
C392        H399   1.083       .  S
C393        C394   1.403       .  A
C394        H400   1.085       .  S
C401        C402   1.404       .  A
C401        C406   1.407       .  A
C402        C403   1.407       .  A
C402        H411   1.083       .  S
C403        C404   1.409       .  A
C403        H412   1.083       .  S
C404        C410   1.413       .  A
C404        C405   1.412       .  A
C405        C407   1.402       .  A
C405        C406   1.403       .  A
C406        H413   1.085       .  S
C407        C408   1.396       .  A
C407        H414   1.084       .  S
C408        C409   1.404   1_554  A
C408        H415   1.083   1_554  S
C409        C410   1.414   1_556  A
C410        H416   1.084       .  S
C417        C418   1.404       .  A
C417        C422   1.407       .  A
C418        C419   1.397       .  A
C418        H427   1.083       .  S
C419        C420   1.404       .  A
C419        H428   1.083       .  S
C420        C426   1.398       .  A
C420        C421   1.411       .  A
C421        C423   1.401       .  A
C421        C422   1.394       .  A
C422        H429   1.084       .  S
C423        C424   1.393       .  A
C423        H430   1.083       .  S
C424        C425   1.404       .  A
C424        H431   1.083       .  S
C425        C426   1.408       .  A
C426        H432   1.084       .  S
C433        C434   1.404       .  A
C433        C438   1.409       .  A
C434        C435   1.401       .  A
C434        H443   1.083       .  S
C435        C436   1.405       .  A
C435        H444   1.083       .  S
C436        C442   1.404       .  A
C436        C437   1.411       .  A
C437        C439   1.403       .  A
C437        C438   1.400       .  A
C438        H445   1.084       .  S
C439        C440   1.397       .  A
C439        H446   1.083       .  S
C440        C441   1.404       .  A
C440        H447   1.083       .  S
C441        C442   1.411       .  A
C442        H448   1.084       .  S
C449        C450   1.405       .  A
C449        C454   1.409       .  A
C450        C451   1.407       .  A
C450        H459   1.083       .  S
C451        C452   1.408       .  A
C451        H460   1.083       .  S
C452        C458   1.414       .  A
C452        C453   1.413       .  A
C453        C455   1.402       .  A
C453        C454   1.404       .  A
C454        H461   1.085       .  S
C455        C456   1.397       .  A
C455        H462   1.084       .  S
C456        C457   1.402       .  A
C456        H463   1.083       .  S
C457        C458   1.411       .  A
C458        H464   1.084       .  S
C465        C466   1.404       .  A
C465        C470   1.408       .  A
C466        C467   1.401       .  A
C466        H475   1.083       .  S
C467        C468   1.405       .  A
C467        H476   1.083       .  S
C468        C474   1.404       .  A
C468        C469   1.412       .  A
C469        C471   1.402       .  A
C469        C470   1.399       .  A
C470        H477   1.084       .  S
C471        C472   1.395       .  A
C471        H478   1.084       .  S
C472        C473   1.404       .  A
C472        H479   1.083       .  S
C473        C474   1.409       .  A
C474        H480   1.084       .  S
C481        C482   1.409       .  A
C481        C486   1.414       .  A
C482        C483   1.396       .  A
C482        H491   1.083       .  S
C483        C484   1.400       .  A
C483        H492   1.084       .  S
C484        C490   1.406       .  A
C484        C485   1.413       .  A
C485        C487   1.408       .  A
C485        C486   1.416       .  A
C486        H493   1.084       .  S
C487        C488   1.407       .  A
C487        H494   1.083       .  S
C488        C489   1.405       .  A
C488        H495   1.083       .  S
C489        C490   1.407       .  A
C490        H496   1.085       .  S
C497        C498   1.406       .  A
C497        C502   1.401       .  A
C498        C499   1.401       .  A
C498        H507   1.083       .  S
C499        C500   1.403       .  A
C499        H508   1.084       .  S
C500        C506   1.411       .  A
C500        C501   1.416       .  A
C501        C503   1.397       .  A
C501        C502   1.404       .  A
C502        H509   1.085       .  S
C503        C504   1.393       .  A
C503        H510   1.084       .  S
C504        C505   1.410       .  A
C504        H511   1.083       .  S
C505        C506   1.408       .  A
C506        H512   1.084       .  S
C513        C514   1.404       .  A
C513        C518   1.408       .  A
C514        C515   1.392       .  A
C514        H523   1.084       .  S
C515        C516   1.399       .  A
C515        H524   1.084       .  S
C516        C522   1.401   1_655  A
C516        C517   1.415       .  A
C517        C519   1.405   1_655  A
C517        C518   1.411       .  A
C518        H525   1.084       .  S
C519        C520   1.404       .  A
C519        H526   1.083   1_455  S
C520        C521   1.407       .  A
C520        H527   1.083       .  S
C521        C522   1.404       .  A
C522        H528   1.084       .  S
C529        C530   1.408       .  A
C529        C534   1.409       .  A
C530        C531   1.392       .  A
C530        H539   1.084       .  S
C531        C532   1.397       .  A
C531        H540   1.084       .  S
C532        C538   1.405       .  A
C532        C533   1.416       .  A
C533        C535   1.405       .  A
C533        C534   1.417       .  A
C534        H541   1.084       .  S
C535        C536   1.405       .  A
C535        H542   1.084       .  S
C536        C537   1.407       .  A
C536        H543   1.083       .  S
C537        C538   1.404       .  A
C538        H544   1.085       .  S
C545        C546   1.404       .  A
C545        C550   1.406       .  A
C546        C547   1.396       .  A
C546        H555   1.083       .  S
C547        C548   1.403       .  A
C547        H556   1.084       .  S
C548        C554   1.397       .  A
C548        C549   1.411       .  A
C549        C551   1.401       .  A
C549        C550   1.394       .  A
C550        H557   1.084       .  S
C551        C552   1.393       .  A
C551        H558   1.084       .  S
C552        C553   1.404       .  A
C552        H559   1.083       .  S
C553        C554   1.407       .  A
C554        H560   1.084       .  S
C561        C562   1.404       .  A
C561        C566   1.409       .  A
C562        C563   1.397       .  A
C562        H571   1.083       .  S
C563        C564   1.403       .  A
C563        H572   1.083       .  S
C564        C570   1.401       .  A
C564        C565   1.411       .  A
C565        C567   1.404       .  A
C565        C566   1.401       .  A
C566        H573   1.084       .  S
C567        C568   1.398       .  A
C567        H574   1.083       .  S
C568        C569   1.405       .  A
C568        H575   1.083       .  S
C569        C570   1.409       .  A
C570        H576   1.084       .  S
C577        C578   1.410       .  A
C577        C582   1.408       .  A
C578        C579   1.393       .  A
C578        H587   1.083       .  S
C579        C580   1.397       .  A
C579        H588   1.084       .  S
C580        C586   1.405       .  A
C580        C581   1.416       .  A
C581        C583   1.403       .  A
C581        C582   1.412       .  A
C582        H589   1.084       .  S
C583        C584   1.401       .  A
C583        H590   1.083       .  S
C584        C585   1.407       .  A
C584        H591   1.084       .  S
C585        C586   1.401       .  A
C586        H592   1.084       .  S
C593        C594   1.404       .  A
C593        C598   1.408       .  A
C594        C595   1.405       .  A
C594        H603   1.083       .  S
C595        C596   1.408       .  A
C595        H604   1.083       .  S
C596        C602   1.410       .  A
C596        C597   1.412       .  A
C597        C599   1.401       .  A
C597        C598   1.402       .  A
C598        H605   1.085       .  S
C599        C600   1.396       .  A
C599        H606   1.084       .  S
C600        C601   1.406       .  A
C600        H607   1.083       .  S
C601        C602   1.413       .  A
C602        H608   1.084       .  S
C609        C610   1.402       .  A
C609        C614   1.405       .  A
C610        C611   1.400       .  A
C610        H619   1.083       .  S
C611        C612   1.405       .  A
C611        H620   1.084       .  S
C612        C618   1.402       .  A
C612        C613   1.413       .  A
C613        C615   1.403       .  A
C613        C614   1.398       .  A
C614        H621   1.085       .  S
C615        C616   1.395       .  A
C615        H622   1.084       .  S
C616        C617   1.401       .  A
C616        H623   1.083       .  S
C617        C618   1.406       .  A
C618        H624   1.085       .  S
C625        C626   1.403   1_554  A
C625        C630   1.411   1_554  A
C626        C627   1.400       .  A
C626        H635   1.083   1_556  S
C627        C628   1.405       .  A
C627        H636   1.084       .  S
C628        C634   1.404       .  A
C628        C629   1.411       .  A
C629        C631   1.407       .  A
C629        C630   1.406       .  A
C630        H637   1.084       .  S
C631        C632   1.402       .  A
C631        H638   1.083       .  S
C632        C633   1.402       .  A
C632        H639   1.083       .  S
C633        C634   1.409       .  A
C634        H640   1.085       .  S
C641        C642   1.407       .  A
C641        C646   1.407       .  A
C642        C643   1.400       .  A
C642        H651   1.083       .  S
C643        C644   1.404       .  A
C643        H652   1.084       .  S
C644        C650   1.406       .  A
C644        C645   1.414       .  A
C645        C647   1.402       .  A
C645        C646   1.401       .  A
C646        H653   1.084       .  S
C647        C648   1.396       .  A
C647        H654   1.084       .  S
C648        C649   1.401       .  A
C648        H655   1.083       .  S
C649        C650   1.405       .  A
C650        H656   1.085       .  S
C657        C658   1.402       .  A
C657        C662   1.406       .  A
C658        C659   1.392       .  A
C658        H667   1.083       .  S
C659        C660   1.401       .  A
C659        H668   1.084       .  S
C660        C666   1.393       .  A
C660        C661   1.412       .  A
C661        C663   1.405       .  A
C661        C662   1.400       .  A
C662        H669   1.084       .  S
C663        C664   1.399       .  A
C663        H670   1.084       .  S
C664        C665   1.404       .  A
C664        H671   1.083       .  S
C665        C666   1.405       .  A
C666        H672   1.085       .  S
C673        C674   1.409   1_455  A
C673        C678   1.406       .  A
C674        C675   1.403       .  A
C674        H683   1.083   1_655  S
C675        C676   1.404       .  A
C675        H684   1.083       .  S
C676        C682   1.414       .  A
C676        C677   1.416       .  A
C677        C679   1.399       .  A
C677        C678   1.406   1_655  A
C678        H685   1.084       .  S
C679        C680   1.394       .  A
C679        H686   1.084       .  S
C680        C681   1.406       .  A
C680        H687   1.084       .  S
C681        C682   1.407       .  A
C682        H688   1.084       .  S
C689        C690   1.404       .  A
C689        C694   1.406       .  A
C690        C691   1.396       .  A
C690        H699   1.083       .  S
C691        C692   1.402       .  A
C691        H700   1.084       .  S
C692        C698   1.402       .  A
C692        C693   1.413       .  A
C693        C695   1.404       .  A
C693        C694   1.406       .  A
C694        H701   1.084   1_565  S
C695        C696   1.400       .  A
C695        H702   1.083   1_565  S
C696        C697   1.406       .  A
C696        H703   1.083       .  S
C697        C698   1.409       .  A
C698        H704   1.084       .  S
C705        C706   1.405       .  A
C705        C710   1.408       .  A
C706        C707   1.400       .  A
C706        H715   1.083       .  S
C707        C708   1.404       .  A
C707        H716   1.084       .  S
C708        C714   1.405       .  A
C708        C709   1.413       .  A
C709        C711   1.404       .  A
C709        C710   1.403       .  A
C710        H717   1.084       .  S
C711        C712   1.398       .  A
C711        H718   1.084       .  S
C712        C713   1.401       .  A
C712        H719   1.083       .  S
C713        C714   1.405       .  A
C714        H720   1.085       .  S
C721        C722   1.407       .  A
C721        C726   1.403       .  A
C722        C723   1.405   1_565  A
C722        H731   1.083       .  S
C723        C724   1.405       .  A
C723        H732   1.084       .  S
C724        C730   1.418       .  A
C724        C725   1.416   1_545  A
C725        C727   1.397       .  A
C725        C726   1.408       .  A
C726        H733   1.085       .  S
C727        C728   1.394   1_565  A
C727        H734   1.084       .  S
C728        C729   1.411       .  A
C728        H735   1.083       .  S
C729        C730   1.411       .  A
C730        H736   1.084       .  S
C737        C738   1.404       .  A
C737        C742   1.412       .  A
C738        C739   1.399       .  A
C738        H747   1.083       .  S
C739        C740   1.404       .  A
C739        H748   1.083       .  S
C740        C746   1.404   1_455  A
C740        C741   1.412   1_455  A
C741        C743   1.406       .  A
C741        C742   1.407   1_655  A
C742        H749   1.084   1_455  S
C743        C744   1.403       .  A
C743        H750   1.083       .  S
C744        C745   1.404       .  A
C744        H751   1.083       .  S
C745        C746   1.409       .  A
C746        H752   1.084   1_655  S
C753        C754   1.407   1_556  A
C753        C758   1.416   1_556  A
C754        C755   1.397       .  A
C754        H763   1.083   1_554  S
C755        C756   1.402       .  A
C755        H764   1.084       .  S
C756        C762   1.405       .  A
C756        C757   1.411       .  A
C757        C759   1.409       .  A
C757        C758   1.414       .  A
C758        H765   1.084       .  S
C759        C760   1.408       .  A
C759        H766   1.083       .  S
C760        C761   1.404       .  A
C760        H767   1.083       .  S
C761        C762   1.411       .  A
C762        H768   1.085       .  S
C769        C770   1.402       .  A
C769        C774   1.407       .  A
C770        C771   1.399       .  A
C770        H779   1.083       .  S
C771        C772   1.404       .  A
C771        H780   1.084       .  S
C772        C778   1.401       .  A
C772        C773   1.413       .  A
C773        C775   1.405       .  A
C773        C774   1.402       .  A
C774        H781   1.085       .  S
C775        C776   1.399       .  A
C775        H782   1.084       .  S
C776        C777   1.402       .  A
C776        H783   1.083       .  S
C777        C778   1.407       .  A
C778        H784   1.085       .  S
C785        C786   1.409       .  A
C785        C790   1.409       .  A
C786        C787   1.393       .  A
C786        H795   1.083       .  S
C787        C788   1.397       .  A
C787        H796   1.084   1_565  S
C788        C794   1.406   1_565  A
C788        C789   1.416       .  A
C789        C791   1.404       .  A
C789        C790   1.416       .  A
C790        H797   1.084       .  S
C791        C792   1.404   1_565  A
C791        H798   1.083       .  S
C792        C793   1.407       .  A
C792        H799   1.083       .  S
C793        C794   1.402       .  A
C794        H800   1.085       .  S
C801        C802   1.403       .  A
C801        C806   1.407   1_545  A
C802        C803   1.396   1_455  A
C802        H811   1.083       .  S
C803        C804   1.403   1_556  A
C803        H812   1.084   1_556  S
C804        C810   1.396       .  A
C804        C805   1.411   1_644  A
C805        C807   1.404       .  A
C805        C806   1.396       .  A
C806        H813   1.085       .  S
C807        C808   1.396   1_456  A
C807        H814   1.084       .  S
C808        C809   1.402       .  A
C808        H815   1.083       .  S
C809        C810   1.406   1_565  A
C810        H816   1.085       .  S
C817        C818   1.405       .  A
C817        C822   1.410       .  A
C818        C819   1.402       .  A
C818        H827   1.083       .  S
C819        C820   1.406       .  A
C819        H828   1.083       .  S
C820        C826   1.409       .  A
C820        C821   1.412       .  A
C821        C823   1.404       .  A
C821        C822   1.407       .  A
C822        H829   1.084       .  S
C823        C824   1.400       .  A
C823        H830   1.083       .  S
C824        C825   1.405       .  A
C824        H831   1.083       .  S
C825        C826   1.412       .  A
C826        H832   1.084       .  S
C833        C834   1.406       .  A
C833        C838   1.407       .  A
C834        C835   1.399       .  A
C834        H843   1.083       .  S
C835        C836   1.403       .  A
C835        H844   1.083       .  S
C836        C842   1.403       .  A
C836        C837   1.412       .  A
C837        C839   1.401       .  A
C837        C838   1.400       .  A
C838        H845   1.084   1_565  S
C839        C840   1.395       .  A
C839        H846   1.083   1_565  S
C840        C841   1.405       .  A
C840        H847   1.083       .  S
C841        C842   1.409       .  A
C842        H848   1.084       .  S
C849        C850   1.403       .  A
C849        C854   1.407       .  A
C850        C851   1.405       .  A
C850        H859   1.083       .  S
C851        C852   1.409       .  A
C851        H860   1.083       .  S
C852        C858   1.409       .  A
C852        C853   1.412       .  A
C853        C855   1.403       .  A
C853        C854   1.401       .  A
C854        H861   1.085       .  S
C855        C856   1.397       .  A
C855        H862   1.084       .  S
C856        C857   1.403       .  A
C856        H863   1.083       .  S
C857        C858   1.413       .  A
C858        H864   1.084       .  S
C865        C866   1.409       .  A
C865        C870   1.408       .  A
C866        C867   1.392       .  A
C866        H875   1.083       .  S
C867        C868   1.397       .  A
C867        H876   1.084       .  S
C868        C874   1.402       .  A
C868        C869   1.415       .  A
C869        C871   1.403       .  A
C869        C870   1.408       .  A
C870        H877   1.084       .  S
C871        C872   1.400       .  A
C871        H878   1.084       .  S
C872        C873   1.407       .  A
C872        H879   1.083       .  S
C873        C874   1.401       .  A
C874        H880   1.085       .  S
C881        C882   1.405       .  A
C881        C886   1.409       .  A
C882        C883   1.407       .  A
C882        H891   1.083       .  S
C883        C884   1.408       .  A
C883        H892   1.083       .  S
C884        C890   1.414   1_545  A
C884        C885   1.413   1_545  A
C885        C887   1.402       .  A
C885        C886   1.404   1_565  A
C886        H893   1.085       .  S
C887        C888   1.397       .  A
C887        H894   1.084       .  S
C888        C889   1.403       .  A
C888        H895   1.083       .  S
C889        C890   1.412       .  A
C890        H896   1.084       .  S
C897        C898   1.407       .  A
C897        C902   1.405       .  A
C898        C899   1.407       .  A
C898        H907   1.083       .  S
C899        C900   1.407       .  A
C899        H908   1.083       .  S
C900        C906   1.418       .  A
C900        C901   1.414       .  A
C901        C903   1.397       .  A
C901        C902   1.406       .  A
C902        H909   1.084       .  S
C903        C904   1.393       .  A
C903        H910   1.083       .  S
C904        C905   1.411       .  A
C904        H911   1.083       .  S
C905        C906   1.413       .  A
C906        H912   1.083       .  S
C913        C914   1.406       .  A
C913        C918   1.401       .  A
C914        C915   1.404       .  A
C914        H923   1.083       .  S
C915        C916   1.405       .  A
C915        H924   1.084       .  S
C916        C922   1.414       .  A
C916        C917   1.416       .  A
C917        C919   1.396       .  A
C917        C918   1.403       .  A
C918        H925   1.085       .  S
C919        C920   1.392       .  A
C919        H926   1.084       .  S
C920        C921   1.409       .  A
C920        H927   1.083       .  S
C921        C922   1.409       .  A
C922        H928   1.084       .  S
C929        C930   1.406   1_545  A
C929        C934   1.407       .  A
C930        C931   1.403       .  A
C930        H939   1.083       .  S
C931        C932   1.405   1_565  A
C931        H940   1.083       .  S
C932        C938   1.411       .  A
C932        C933   1.414       .  A
C933        C935   1.400       .  A
C933        C934   1.402       .  A
C934        H941   1.084       .  S
C935        C936   1.394       .  A
C935        H942   1.084       .  S
C936        C937   1.407       .  A
C936        H943   1.083       .  S
C937        C938   1.409       .  A
C938        H944   1.084       .  S
C945        C946   1.405       .  A
C945        C950   1.409   1_565  A
C946        C947   1.397       .  A
C946        H955   1.083       .  S
C947        C948   1.403       .  A
C947        H956   1.084       .  S
C948        C954   1.400       .  A
C948        C949   1.412   1_565  A
C949        C951   1.405       .  A
C949        C950   1.401       .  A
C950        H957   1.084       .  S
C951        C952   1.398       .  A
C951        H958   1.083       .  S
C952        C953   1.400       .  A
C952        H959   1.083       .  S
C953        C954   1.403   1_545  A
C954        H960   1.085       .  S
C961        C962   1.407       .  A
C961        C966   1.407       .  A
C962        C963   1.405       .  A
C962        H971   1.083       .  S
C963        C964   1.406       .  A
C963        H972   1.083       .  S
C964        C970   1.412       .  A
C964        C965   1.413       .  A
C965        C967   1.400       .  A
C965        C966   1.400       .  A
C966        H973   1.084       .  S
C967        C968   1.393       .  A
C967        H974   1.084       .  S
C968        C969   1.405       .  A
C968        H975   1.083       .  S
C969        C970   1.410       .  A
C970        H976   1.084       .  S
C977        C978   1.405       .  A
C977        C982   1.412       .  A
C978        C979   1.392       .  A
C978        H987   1.083       .  S
C979        C980   1.400       .  A
C979        H988   1.084       .  S
C980        C986   1.395       .  A
C980        C981   1.411       .  A
C981        C983   1.408       .  A
C981        C982   1.407       .  A
C982        H989   1.083       .  S
C983        C984   1.404       .  A
C983        H990   1.083       .  S
C984        C985   1.404       .  A
C984        H991   1.083       .  S
C985        C986   1.406       .  A
C986        H992   1.084       .  S
C993        C994   1.408       .  A
C993        C998   1.413       .  A
C994        C995   1.402       .  A
C994       H1003   1.083       .  S
C995        C996   1.403       .  A
C995       H1004   1.084       .  S
C996       C1002   1.414   1_565  A
C996        C997   1.414       .  A
C997        C999   1.405   1_565  A
C997        C998   1.416       .  A
C998       H1005   1.084       .  S
C999       C1000   1.404       .  A
C999       H1006   1.083       .  S
C1000      C1001   1.406       .  A
C1000      H1007   1.083       .  S
C1001      C1002   1.409       .  A
C1002      H1008   1.084       .  S
C1009      C1010   1.407       .  A
C1009      C1014   1.405       .  A
C1010      C1011   1.393       .  A
C1010      H1019   1.083       .  S
C1011      C1012   1.398       .  A
C1011      H1020   1.084       .  S
C1012      C1018   1.402       .  A
C1012      C1013   1.416       .  A
C1013      C1015   1.402   1_545  A
C1013      C1014   1.406       .  A
C1014      H1021   1.085       .  S
C1015      C1016   1.398       .  A
C1015      H1022   1.084       .  S
C1016      C1017   1.407   1_565  A
C1016      H1023   1.083       .  S
C1017      C1018   1.402       .  A
C1018      H1024   1.085       .  S
C1025      C1026   1.408       .  A
C1025      C1030   1.412       .  A
C1026      C1027   1.394       .  A
C1026      H1035   1.084   1_556  S
C1027      C1028   1.398       .  A
C1027      H1036   1.084       .  S
C1028      C1034   1.408       .  A
C1028      C1029   1.415       .  A
C1029      C1031   1.407       .  A
C1029      C1030   1.421       .  A
C1030      H1037   1.083       .  S
C1031      C1032   1.408       .  A
C1031      H1038   1.083       .  S
C1032      C1033   1.408       .  A
C1032      H1039   1.083       .  S
C1033      C1034   1.407       .  A
C1034      H1040   1.085       .  S
C1041      C1042   1.407       .  A
C1041      C1046   1.407       .  A
C1042      C1043   1.406       .  A
C1042      H1051   1.083       .  S
C1043      C1044   1.407   1_655  A
C1043      H1052   1.083   1_655  S
C1044      C1050   1.417       .  A
C1044      C1045   1.414   1_455  A
C1045      C1047   1.400   1_655  A
C1045      C1046   1.408       .  A
C1046      H1053   1.084       .  S
C1047      C1048   1.397       .  A
C1047      H1054   1.084   1_455  S
C1048      C1049   1.409       .  A
C1048      H1055   1.083       .  S
C1049      C1050   1.414       .  A
C1050      H1056   1.084       .  S
C1057      C1058   1.407       .  A
C1057      C1062   1.401       .  A
C1058      C1059   1.403       .  A
C1058      H1067   1.084       .  S
C1059      C1060   1.404       .  A
C1059      H1068   1.084       .  S
C1060      C1066   1.416       .  A
C1060      C1061   1.417       .  A
C1061      C1063   1.397       .  A
C1061      C1062   1.407       .  A
C1062      H1069   1.084       .  S
C1063      C1064   1.393       .  A
C1063      H1070   1.084       .  S
C1064      C1065   1.408       .  A
C1064      H1071   1.084       .  S
C1065      C1066   1.408       .  A
C1066      H1072   1.084       .  S
C1073      C1074   1.402       .  A
C1073      C1078   1.404       .  A
C1074      C1075   1.397       .  A
C1074      H1083   1.083       .  S
C1075      C1076   1.403       .  A
C1075      H1084   1.084       .  S
C1076      C1082   1.402       .  A
C1076      C1077   1.413       .  A
C1077      C1079   1.403       .  A
C1077      C1078   1.404       .  A
C1078      H1085   1.085       .  S
C1079      C1080   1.399       .  A
C1079      H1086   1.083       .  S
C1080      C1081   1.405       .  A
C1080      H1087   1.083       .  S
C1081      C1082   1.408       .  A
C1082      H1088   1.084       .  S
C1089      C1090   1.403       .  A
C1089      C1094   1.408       .  A
C1090      C1091   1.396       .  A
C1090      H1099   1.083       .  S
C1091      C1092   1.403       .  A
C1091      H1100   1.083       .  S
C1092      C1098   1.396       .  A
C1092      C1093   1.410       .  A
C1093      C1095   1.403       .  A
C1093      C1094   1.396       .  A
C1094      H1101   1.084       .  S
C1095      C1096   1.396       .  A
C1095      H1102   1.083       .  S
C1096      C1097   1.403       .  A
C1096      H1103   1.083       .  S
C1097      C1098   1.408       .  A
C1098      H1104   1.084       .  S
C1105      C1106   1.405       .  A
C1105      C1110   1.407       .  A
C1106      C1107   1.394       .  A
C1106      H1115   1.083       .  S
C1107      C1108   1.400       .  A
C1107      H1116   1.084       .  S
C1108      C1114   1.400       .  A
C1108      C1109   1.414       .  A
C1109      C1111   1.405       .  A
C1109      C1110   1.408       .  A
C1110      H1117   1.084       .  S
C1111      C1112   1.402       .  A
C1111      H1118   1.083       .  S
C1112      C1113   1.405       .  A
C1112      H1119   1.083       .  S
C1113      C1114   1.406       .  A
C1114      H1120   1.085       .  S
C1121      C1122   1.404       .  A
C1121      C1126   1.407       .  A
C1122      C1123   1.407       .  A
C1122      H1131   1.083       .  S
C1123      C1124   1.408       .  A
C1123      H1132   1.083       .  S
C1124      C1130   1.413       .  A
C1124      C1125   1.413       .  A
C1125      C1127   1.401       .  A
C1125      C1126   1.403       .  A
C1126      H1133   1.085       .  S
C1127      C1128   1.396       .  A
C1127      H1134   1.084       .  S
C1128      C1129   1.405       .  A
C1128      H1135   1.083       .  S
C1129      C1130   1.413       .  A
C1130      H1136   1.084       .  S
