geometry optimzed in LAMMPS
_audit_creation_date              2020-11-30 
_audit_creation_method            'lammps2cif' 
_symmetry_space_group_name_H-M    'P1' 
_symmetry_Int_Tables_number       1 
_symmetry_cell_setting            triclinic 
loop_ 
_symmetry_equiv_pos_as_xyz 
  x,y,z 
_cell_length_a                    48.15677204039936 
_cell_length_b                    47.371530530630594 
_cell_length_c                    34.97254031594207 
_cell_angle_alpha                 90.46900825779696 
_cell_angle_beta                  89.9052947847011 
_cell_angle_gamma                 121.93046693941722 
loop_ 
_atom_site_label 
_atom_site_type_symbol 
_atom_site_fract_x 
_atom_site_fract_y 
_atom_site_fract_z 
_atom_site_charge 
Zn1        Zn  0.65163370  0.52674975  0.24765287     1.49720
Zn2        Zn  0.60246618  0.48660714  0.30832430     1.49360
Zn3        Zn  0.66601407  0.53714116  0.34335502     1.49110
Zn4        Zn  0.62504914  0.56060176  0.29738130     1.49480
O5          O  0.63889067  0.52995116  0.29851868    -1.82070
O6          O  0.61936062  0.48253098  0.22113178    -0.72700
O7          O  0.61322328  0.45785712  0.33650676    -0.72520
O8          O  0.70768733  0.53997684  0.31843845    -0.72040
O9          O  0.57838437  0.46189148  0.26194259    -0.72720
O10         O  0.69443794  0.53187717  0.25575936    -0.72320
O11         O  0.63817862  0.49620245  0.38061603    -0.72900
O12         O  0.64580071  0.59535647  0.33642194    -0.72290
O13         O  0.57212353  0.49151963  0.34034766    -0.73050
O14         O  0.67113577  0.57846078  0.37431109    -0.72440
O15         O  0.57900600  0.53636742  0.31170301    -0.72900
O16         O  0.62884970  0.58085229  0.24697663    -0.72810
O17         O  0.65291279  0.56097437  0.21138221    -0.72600
C18         C  0.58960202  0.46130399  0.22936696     0.79190
C19         C  0.61770832  0.46570801  0.37152943     0.79680
C20         C  0.71372866  0.53624362  0.28330075     0.78640
C21         C  0.66024844  0.59760904  0.36756030     0.79010
C22         C  0.56214923  0.51060724  0.33188239     0.80150
C23         C  0.64026640  0.57865357  0.21517917     0.79200
Zn24       Zn  0.48408823  0.60938612  0.02861508     1.49720
Zn25       Zn  0.54279579  0.64623766  0.08312000     1.49360
Zn26       Zn  0.54347292  0.59669113  0.02772744     1.49110
Zn27       Zn  0.54853680  0.65853312  0.99045915     1.49480
O28         O  0.53117915  0.62836401  0.03256370    -1.82070
O29         O  0.46265589  0.60803582  0.07759257    -0.72700
O30         O  0.57961724  0.64195469  0.10496403    -0.72520
O31         O  0.50399799  0.55249094  0.01756985    -0.72040
O32         O  0.50290303  0.61879914  0.11751890    -0.72720
O33         O  0.46301391  0.56162131  0.01644010    -0.72320
O34         O  0.56627317  0.59523965  0.07459860    -0.72900
O35         O  0.59017592  0.65973854  0.46864116    -0.72290
O36         O  0.55353258  0.69296445  0.07830596    -0.73050
O37         O  0.57703686  0.60949063  0.48769182    -0.72440
O38         O  0.55473930  0.70186706  0.01498675    -0.72900
O39         O  0.51126153  0.63553708  0.44965240    -0.72810
O40         O  0.47079372  0.62788415  0.48647739    -0.72600
C41         C  0.47249370  0.60578779  0.11040987     0.79190
C42         C  0.58245124  0.61679388  0.10051258     0.79680
C43         C  0.47383080  0.54242445  0.01439537     0.78640
C44         C  0.59558320  0.63587891  0.46908060     0.79010
C45         C  0.55577602  0.71102828  0.05007363     0.80150
C46         C  0.48075572  0.62433522  0.45431319     0.79200
Zn47       Zn  0.04295860  0.62261518  0.47966732     1.49720
Zn48       Zn  0.11156761  0.65191895  0.01968728     1.49360
Zn49       Zn  0.07586465  0.57966916  0.48252839     1.49110
Zn50       Zn  0.10048455  0.63712684  0.42761511     1.49480
O51         O  0.08375228  0.62326907  0.47779001    -1.82070
O52         O  0.04817675  0.65847250  0.01395377    -0.72700
O53         O  0.13287444  0.62858237  0.04814214    -0.72520
O54         O  0.03061180  0.54989824  0.49992534    -0.72040
O55         O  0.07762582  0.65267873  0.05750251    -0.72720
O56         O  0.00772008  0.58018364  0.50252536    -0.72320
O57         O  0.10475666  0.57847905  0.02123693    -0.72900
O58         O  0.11771655  0.61035736  0.40540673    -0.72290
O59         O  0.14712931  0.69657496  0.49264108    -0.73050
O60         O  0.08555052  0.56272686  0.43498603    -0.72440
O61         O  0.13598589  0.68342059  0.43043007    -0.72900
O62         O  0.06619492  0.63200309  0.39089328    -0.72810
O63         O  0.02591571  0.62461727  0.42826263    -0.72600
C64         C  0.05252426  0.65410508  0.04862105     0.79190
C65         C  0.12618499  0.59856186  0.04489489     0.79680
C66         C  0.00664252  0.55314609  0.50778329     0.78640
C67         C  0.10603385  0.57936648  0.40884011     0.79010
C68         C  0.15285386  0.70385921  0.45685441     0.80150
C69         C  0.03763379  0.62680884  0.39509246     0.79200
Zn70       Zn  0.89600744  0.55649589  0.21366504     1.49720
Zn71       Zn  0.84140983  0.47758296  0.21221642     1.49360
Zn72       Zn  0.89194251  0.50801483  0.14618912     1.49110
Zn73       Zn  0.91402286  0.50425576  0.23049744     1.49480
O74         O  0.88557802  0.51199280  0.20094457    -1.82070
O75         O  0.85264695  0.55427730  0.22452884    -0.72700
O76         O  0.82634930  0.44275522  0.17014865    -0.72520
O77         O  0.92040209  0.55360188  0.12283451    -0.72040
O78         O  0.81606060  0.49941570  0.22156240    -0.72720
O79         O  0.92801436  0.58741655  0.17203866    -0.72320
O80         O  0.85095079  0.47249978  0.11852722    -0.72900
O81         O  0.93587131  0.48834873  0.19819443    -0.72290
O82         O  0.83732143  0.45143945  0.25915692    -0.73050
O83         O  0.91898899  0.48815228  0.13909516    -0.72440
O84         O  0.88937980  0.46743959  0.26647916    -0.72900
O85         O  0.94700886  0.54431082  0.25951250    -0.72810
O86         O  0.92410652  0.57446325  0.26163000    -0.72600
C87         C  0.82325711  0.52920056  0.22769588     0.79190
C88         C  0.83275234  0.44438777  0.13459236     0.79680
C89         C  0.93580131  0.58228771  0.13880175     0.78640
C90         C  0.93478954  0.48195718  0.16285618     0.79010
C91         C  0.85942863  0.44862147  0.27497051     0.80150
C92         C  0.94604083  0.56892488  0.27239324     0.79200
Zn93       Zn  0.61844035  0.04018044  0.35362886     1.49720
Zn94       Zn  0.58743764  0.08351720  0.35662434     1.49360
Zn95       Zn  0.64206780  0.09640493  0.41211635     1.49110
Zn96       Zn  0.65593848  0.10939712  0.31729690     1.49480
O97         O  0.62689987  0.08434375  0.36026271    -1.82070
O98         O  0.57817314  0.01297861  0.32211366    -0.72700
O99         O  0.57422684  0.09550754  0.40471254    -0.72520
O100        O  0.63528815  0.05743241  0.44391176    -0.72040
O101        O  0.55366321  0.04051527  0.33585765    -0.72720
O102        O  0.61291068  0.01629703  0.40176489    -0.72320
O103        O  0.61913076  0.11628949  0.43988184    -0.72900
O104        O  0.70054547  0.14282383  0.34621778    -0.72290
O105        O  0.59001468  0.11502475  0.31913394    -0.73050
O106        O  0.68872772  0.13012448  0.40843842    -0.72440
O107        O  0.63594804  0.13359211  0.28661311    -0.72900
O108        O  0.65375740  0.07204348  0.27996451    -0.72810
O109        O  0.65565695  0.04311805  0.32698381    -0.72600
C110        C  0.55357185  0.01609621  0.32045014     0.79190
C111        C  0.59076588  0.11137007  0.43410108     0.79680
C112        C  0.62208796  0.02667557  0.43566591     0.78640
C113        C  0.70865227  0.14716696  0.38202996     0.79010
C114        C  0.60886169  0.13225976  0.29226699     0.80150
C115        C  0.65255799  0.04578835  0.29163637     0.79200
Zn116      Zn  0.51655305  0.88841844  0.18318819     1.49720
Zn117      Zn  0.48445904  0.83136038  0.11945165     1.49360
Zn118      Zn  0.51105083  0.90245436  0.09565868     1.49110
Zn119      Zn  0.56386885  0.88870797  0.12217643     1.49480
O120        O  0.51908806  0.87677957  0.13015189    -1.82070
O121        O  0.47346438  0.85498105  0.20720069    -0.72700
O122        O  0.45808248  0.82728789  0.07160830    -0.72520
O123        O  0.51698035  0.94100943  0.12248112    -0.72040
O124        O  0.44924971  0.81544132  0.16232424    -0.72720
O125        O  0.51685793  0.93014620  0.18406611    -0.72320
O126        O  0.46666603  0.87804612  0.07316104    -0.72900
O127        O  0.58403971  0.91758787  0.07523871    -0.72290
O128        O  0.50803034  0.80690000  0.10830289    -0.73050
O129        O  0.54306075  0.92180909  0.05375311    -0.72440
O130        O  0.56203630  0.84494119  0.11289043    -0.72900
O131        O  0.59195302  0.92121205  0.16538985    -0.72810
O132        O  0.55758754  0.90389173  0.21423901    -0.72600
C133        C  0.44836226  0.82865347  0.19408068     0.79190
C134        C  0.45073682  0.84823590  0.06110580     0.79680
C135        C  0.51858594  0.94888319  0.15739225     0.78640
C136        C  0.57222078  0.92862456  0.05138095     0.79010
C137        C  0.53805782  0.81534493  0.10539617     0.80150
C138        C  0.58553363  0.92453498  0.19998080     0.79200
Zn139      Zn  0.48919190  0.13791289  0.11878153     1.49720
Zn140      Zn  0.40926289  0.08067029  0.11896183     1.49360
Zn141      Zn  0.46090751  0.06540181  0.09133979     1.49110
Zn142      Zn  0.45945653  0.08336920  0.17937737     1.49480
O143        O  0.45421027  0.09231572  0.12660542    -1.82070
O144        O  0.46634485  0.16241115  0.10773383    -0.72700
O145        O  0.38989846  0.05337434  0.06966781    -0.72520
O146        O  0.49295837  0.09179145  0.05133457    -0.72040
O147        O  0.41208597  0.12499382  0.11000114    -0.72720
O148        O  0.51682844  0.14380270  0.07232188    -0.72320
O149        O  0.42075883  0.03160252  0.06401482    -0.72900
O150        O  0.48221339  0.05938392  0.17891643    -0.72290
O151        O  0.37941560  0.04687928  0.16123116    -0.73050
O152        O  0.48085133  0.04458324  0.11814424    -0.72440
O153        O  0.41618815  0.04983463  0.20243817    -0.72900
O154        O  0.49180852  0.12334199  0.21129412    -0.72810
O155        O  0.52276505  0.15234971  0.16238142    -0.72600
C156        C  0.43661099  0.15435432  0.10317295     0.79190
C157        C  0.39607826  0.03283670  0.05422966     0.79680
C158        C  0.51470327  0.12237083  0.04851351     0.78640
C159        C  0.48881197  0.04526823  0.15280550     0.79010
C160        C  0.38678133  0.03600895  0.19057608     0.80150
C161        C  0.51997761  0.14359184  0.19726907     0.79200
Zn162      Zn  0.31180678  0.85466990  0.31716766     1.49720
Zn163      Zn  0.32534219  0.86864545  0.41121954     1.49360
Zn164      Zn  0.37095340  0.85985406  0.35720735     1.49110
Zn165      Zn  0.36548420  0.92431638  0.35480155     1.49480
O166        O  0.34223562  0.87700702  0.35998858    -1.82070
O167        O  0.26802975  0.81827817  0.34492873    -0.72700
O168        O  0.34880016  0.85401286  0.44631303    -0.72520
O169        O  0.35299803  0.81869215  0.32618670    -0.72040
O170        O  0.28031249  0.83175560  0.40708090    -0.72720
O171        O  0.33303419  0.83493463  0.28118426    -0.72320
O172        O  0.38315712  0.85051255  0.40763853    -0.72900
O173        O  0.40967061  0.93869759  0.33594968    -0.72290
O174        O  0.32841109  0.90820854  0.43764346    -0.73050
O175        O  0.41140742  0.89286175  0.33075684    -0.72440
O176        O  0.36701060  0.94893257  0.40291245    -0.72900
O177        O  0.34722900  0.93805177  0.31347711    -0.72810
O178        O  0.31124318  0.89117914  0.28300054    -0.72600
C179        C  0.26081716  0.81322942  0.38086031     0.79190
C180        C  0.37159681  0.84840156  0.44082591     0.79680
C181        C  0.34890767  0.82132619  0.29097442     0.78640
C182        C  0.42391337  0.92372130  0.32537595     0.79010
C183        C  0.34904225  0.93903176  0.43259531     0.80150
C184        C  0.32798107  0.92313797  0.28559739     0.79200
Zn185      Zn  0.38108970  0.44848462  0.25733937     1.49720
Zn186      Zn  0.31134204  0.39988617  0.29099770     1.49360
Zn187      Zn  0.36619688  0.44866424  0.34761784     1.49110
Zn188      Zn  0.34512478  0.48246295  0.29039859     1.49480
O189        O  0.35036326  0.44474815  0.29579894    -1.82070
O190        O  0.36543678  0.40598612  0.22954487    -0.72700
O191        O  0.31182481  0.36890341  0.33277779    -0.72520
O192        O  0.41169435  0.46326765  0.34355353    -0.72040
O193        O  0.31251339  0.37543917  0.24334343    -0.72720
O194        O  0.42254374  0.46091315  0.28216275    -0.72320
O195        O  0.34996887  0.40537633  0.37293732    -0.72900
O196        O  0.36750718  0.51646540  0.33466768    -0.72290
O197        O  0.27276650  0.40624781  0.28395518    -0.73050
O198        O  0.37037278  0.48581840  0.38023997    -0.72440
O199        O  0.29692290  0.46185167  0.27958265    -0.72900
O200        O  0.37028663  0.51098238  0.24503240    -0.72810
O201        O  0.39268483  0.48463006  0.21950849    -0.72600
C202        C  0.33739234  0.37985138  0.22514820     0.79190
C203        C  0.33093004  0.37566592  0.36141972     0.79680
C204        C  0.43091401  0.46669402  0.31701526     0.78640
C205        C  0.37738773  0.51397217  0.36758138     0.79010
C206        C  0.27179831  0.43225322  0.27666082     0.80150
C207        C  0.38810299  0.50869202  0.21987827     0.79200
Zn208      Zn  0.43193240  0.32127869  0.08479263     1.49720
Zn209      Zn  0.47141733  0.38552096  0.03740379     1.49360
Zn210      Zn  0.44046809  0.31886447  0.99012719     1.49110
Zn211      Zn  0.39374342  0.33764986  0.02787330     1.49480
O212        O  0.43537064  0.34053457  0.03509701    -1.82070
O213        O  0.47302068  0.34858700  0.11694264    -0.72700
O214        O  0.50455024  0.39641746  0.49680215    -0.72520
O215        O  0.43199795  0.27366265  0.01139186    -0.72040
O216        O  0.49671911  0.39642940  0.08593529    -0.72720
O217        O  0.42472599  0.27693165  0.07443619    -0.72320
O218        O  0.48776773  0.34884865  0.46634793    -0.72900
O219        O  0.36616013  0.30593363  0.48725540    -0.72290
O220        O  0.45396364  0.41442249  0.03154804    -0.73050
O221        O  0.40707157  0.31669283  0.44928188    -0.72440
O222        O  0.40196916  0.38163826  0.01281598    -0.72900
O223        O  0.36752909  0.32813883  0.07517804    -0.72810
O224        O  0.39550896  0.31845113  0.11721865    -0.72600
C225        C  0.49563804  0.37909662  0.11404582     0.79190
C226        C  0.50925208  0.37986520  0.47173139     0.79680
C227        C  0.42621892  0.26140714  0.04536000     0.78640
C228        C  0.37831502  0.31159394  0.45402064     0.79010
C229        C  0.42695112  0.41006447  0.01997649     0.80150
C230        C  0.37218048  0.32270828  0.10926827     0.79200
Zn231      Zn  0.11482793  0.44062409  0.16782441     1.49720
Zn232      Zn  0.10601846  0.43724599  0.26198111     1.49360
Zn233      Zn  0.08975591  0.47979950  0.21286752     1.49110
Zn234      Zn  0.04632246  0.40182002  0.20663965     1.49480
O235        O  0.09054364  0.44023623  0.21245276    -1.82070
O236        O  0.14962887  0.43134631  0.18932305    -0.72700
O237        O  0.12314095  0.47940908  0.29365776    -0.72520
O238        O  0.12151166  0.51421098  0.17829316    -0.72040
O239        O  0.14087034  0.42786895  0.25273874    -0.72720
O240        O  0.13535076  0.48657913  0.13940421    -0.72320
O241        O  0.09794632  0.50080218  0.26364269    -0.72900
O242        O  0.01843856  0.41553849  0.18101118    -0.72290
O243        O  0.06957156  0.40266431  0.29504130    -0.73050
O244        O  0.04810268  0.46999501  0.19167799    -0.72440
O245        O  0.02639382  0.38245167  0.25678150    -0.72900
O246        O  0.04463183  0.36768461  0.17186662    -0.72810
O247        O  0.07870919  0.40544541  0.13105193    -0.72600
C248        C  0.15639528  0.42705460  0.22361160     0.79190
C249        C  0.11411068  0.50024775  0.29191843     0.79680
C250        C  0.13522362  0.51292557  0.14799959     0.78640
C251        C  0.02292585  0.44434065  0.17804259     0.79010
C252        C  0.03877653  0.38495743  0.28961771     0.80150
C253        C  0.05125098  0.37864879  0.13803513     0.79200
Zn254      Zn  0.85449849  0.36045421  0.47689089     1.49720
Zn255      Zn  0.92462184  0.37222791  0.47571413     1.49360
Zn256      Zn  0.86509637  0.30875756  0.01748813     1.49110
Zn257      Zn  0.87507805  0.32144923  0.42562052     1.49480
O258        O  0.88006754  0.33979121  0.47480399    -1.82070
O259        O  0.88075675  0.40544683  0.50143874    -0.72700
O260        O  0.94379212  0.36051902  0.01593452    -0.72520
O261        O  0.84480781  0.32839720  0.05447947    -0.72040
O262        O  0.93070134  0.41479378  0.49229489    -0.72720
O263        O  0.81617599  0.33408341  0.00987497    -0.72320
O264        O  0.90766943  0.31435054  0.04578351    -0.72900
O265        O  0.83888690  0.27623874  0.42877877    -0.72290
O266        O  0.94964752  0.37469758  0.42847733    -0.73050
O267        O  0.82882708  0.26293009  0.49086519    -0.72440
O268        O  0.91530132  0.32425948  0.40550738    -0.72900
O269        O  0.86276843  0.34511125  0.38874894    -0.72810
O270        O  0.84177663  0.36738536  0.42560944    -0.72600
C271        C  0.91165294  0.42395478  0.50409334     0.79190
C272        C  0.93724553  0.33929388  0.04162963     0.79680
C273        C  0.82569528  0.33821091  0.04433169     0.78640
C274        C  0.82179252  0.25611631  0.45495692     0.79010
C275        C  0.94348295  0.35074616  0.40603791     0.80150
C276        C  0.84917209  0.36181177  0.39275051     0.79200
C277        C  0.02155197  0.38913618  0.08778918     0.25650
C278        C  0.02383107  0.36579310  0.10973292    -0.22460
C279        C  0.99660898  0.33262968  0.10998118     0.20560
C280        C  0.96810113  0.32317479  0.08817209     0.25590
C281        C  0.96596345  0.34693009  0.06653316    -0.22400
C282        C  0.99321947  0.38017079  0.06738481     0.20490
F283        F  0.99231183  0.40509367  0.04963950    -0.12360
F284        F  0.04586422  0.42178534  0.08846224    -0.14720
F285        F  0.94279183  0.29104174  0.08838374    -0.14720
F286        F  0.99746856  0.30948380  0.13167568    -0.12360
C287        C  0.96013464  0.33655554  0.34447609     0.25650
C288        C  0.96896050  0.35437491  0.37929285    -0.22460
C289        C  0.00224252  0.37759082  0.38687637     0.20560
C290        C  0.02580847  0.38514669  0.35881608     0.25590
C291        C  0.01643861  0.36987254  0.32248384    -0.22400
C292        C  0.98364777  0.34429236  0.31632813     0.20490
F293        F  0.97391828  0.32806132  0.28215446    -0.12360
F294        F  0.92838653  0.31339121  0.33634848    -0.14720
F295        F  0.05730000  0.40947547  0.36625875    -0.14720
F296        F  0.01189974  0.39406549  0.42091243    -0.12360
C297        C  0.21058602  0.40459658  0.27571475     0.25650
C298        C  0.24139314  0.42828443  0.26109104    -0.22460
C299        C  0.24323944  0.44800102  0.23002034     0.20560
C300        C  0.21497979  0.44534662  0.21520591     0.25590
C301        C  0.18440299  0.42332972  0.23158088    -0.22400
C302        C  0.18235692  0.40243125  0.26141596     0.20490
F303        F  0.15304613  0.38071055  0.27766194    -0.12360
F304        F  0.20796466  0.38479790  0.30511856    -0.14720
F305        F  0.21784803  0.46604844  0.18674500    -0.14720
F306        F  0.27256509  0.47007885  0.21404425    -0.12360
C307        C  0.31771604  0.32939436  0.40773430     0.25650
C308        C  0.33663361  0.35034090  0.37791617    -0.22460
C309        C  0.36605106  0.35233442  0.36837014     0.20560
C310        C  0.37811458  0.33652980  0.39053013     0.25590
C311        C  0.36089590  0.31811096  0.42296715    -0.22400
C312        C  0.32946070  0.31303929  0.42974353     0.20490
F313        F  0.31104062  0.29427746  0.45957063    -0.12360
F314        F  0.28910688  0.32670218  0.41737213    -0.14720
F315        F  0.40813662  0.34204051  0.38221753    -0.14720
F316        F  0.38457049  0.37205008  0.33915049    -0.12360
C317        C  0.32360001  0.35245946  0.16130417     0.25650
C318        C  0.33490950  0.35446883  0.19864490    -0.22460
C319        C  0.35132861  0.33822803  0.20777239     0.20560
C320        C  0.35999752  0.32369238  0.17898254     0.25590
C321        C  0.35281883  0.32579115  0.14043701    -0.22400
C322        C  0.33222011  0.33796994  0.13232939     0.20490
F323        F  0.32313514  0.33907084  0.09590109    -0.12360
F324        F  0.30736202  0.36775647  0.15211128    -0.14720
F325        F  0.37804223  0.31044304  0.18858566    -0.14720
F326        F  0.36162669  0.33919126  0.24416183    -0.12360
C327        C  0.44757625  0.22382153  0.03947401     0.25650
C328        C  0.42364391  0.22951761  0.05342756    -0.22460
C329        C  0.40201481  0.20843224  0.08202687     0.20560
C330        C  0.40543572  0.18329540  0.09776064     0.25590
C331        C  0.43104698  0.17938371  0.08584366    -0.22400
C332        C  0.45141037  0.19918818  0.05569968     0.20610
F333        F  0.47538847  0.19490999  0.04209805    -0.12360
F334        F  0.46898496  0.24383259  0.01227990    -0.14720
F335        F  0.38492126  0.16410358  0.12605683    -0.14720
F336        F  0.37842605  0.21318801  0.09592779    -0.12360
C337        C  0.36600073  0.97618372  0.20002684     0.25650
C338        C  0.36256533  0.00338833  0.20801283    -0.22460
C339        C  0.34085920  0.00006748  0.23708661     0.20560
C340        C  0.32526008  0.97119625  0.25990735     0.25590
C341        C  0.33063289  0.94495305  0.25354907    -0.22400
C342        C  0.35001631  0.94727006  0.22218644     0.20490
F343        F  0.35724311  0.92346846  0.21628559    -0.12360
F344        F  0.38746966  0.97889168  0.17285487    -0.14720
F345        F  0.30705350  0.96999741  0.29022443    -0.14720
F346        F  0.33689699  0.02573842  0.24544777    -0.12360
C347        C  0.38291611  0.02112887  0.48534291     0.25650
C348        C  0.37554251  0.01033242  0.02331920    -0.22460
C349        C  0.35485284  0.97633505  0.03075522     0.20560
C350        C  0.34377770  0.95307051  0.50075172     0.25590
C351        C  0.35383988  0.96353420  0.46281891    -0.22400
C352        C  0.37211443  0.99796140  0.45527672     0.20490
F353        F  0.38122220  0.00927302  0.41906484    -0.12360
F354        F  0.40304820  0.05398679  0.47767700    -0.14720
F355        F  0.32555077  0.92024147  0.00955816    -0.14720
F356        F  0.34760019  0.96553291  0.06737616    -0.12360
C357        C  0.38832756  0.80273571  0.27570776     0.25650
C358        C  0.36737507  0.81326147  0.26255031    -0.22460
C359        C  0.36963131  0.82204640  0.22369272     0.20560
C360        C  0.39400084  0.82331445  0.20002547     0.25590
C361        C  0.41692100  0.81624220  0.21463884    -0.22400
C362        C  0.41312626  0.80492253  0.25228899     0.20490
F363        F  0.43480327  0.79792838  0.26722656    -0.12360
F364        F  0.38668240  0.79269849  0.31234054    -0.14720
F365        F  0.39726592  0.83473529  0.16378559    -0.14720
F366        F  0.35004169  0.83198285  0.20923366    -0.12360
C367        C  0.42517679  0.82700721  0.49711466     0.25650
C368        C  0.42435499  0.83925482  0.03341080    -0.22460
C369        C  0.40206313  0.84921746  0.04059219     0.20560
C370        C  0.38291617  0.84980390  0.01105092     0.25590
C371        C  0.38617283  0.84091021  0.47355809    -0.22400
C372        C  0.40632029  0.82791394  0.46729265     0.20490
F373        F  0.40910393  0.81763719  0.43191147    -0.12360
F374        F  0.44646385  0.81712292  0.48959828    -0.14720
F375        F  0.36315020  0.86153067  0.01877002    -0.14720
F376        F  0.40029934  0.86031471  0.07590193    -0.12360
C377        C  0.49863019  0.97933611  0.19310057     0.25650
C378        C  0.52040310  0.97964427  0.16626355    -0.22460
C379        C  0.53760109  0.00653666  0.14130755     0.20560
C380        C  0.52952441  0.03052059  0.13945720     0.25590
C381        C  0.50464679  0.02773355  0.16290600    -0.22400
C382        C  0.49065703  0.00347474  0.19130092     0.20490
F383        F  0.46580551  0.00022768  0.21310115    -0.12360
F384        F  0.48137847  0.95303755  0.21670564    -0.14720
F385        F  0.54350966  0.05443822  0.11231266    -0.14720
F386        F  0.55936454  0.00740506  0.11581352    -0.12360
C387        C  0.74639014  0.20698939  0.39475677     0.25650
C388        C  0.74064513  0.17479562  0.39577465    -0.22460
C389        C  0.76034256  0.16852380  0.41978491     0.20560
C390        C  0.78597781  0.19436690  0.44148027     0.25590
C391        C  0.79135051  0.22649549  0.44058417    -0.22400
C392        C  0.77118402  0.23238923  0.41705115     0.20490
F393        F  0.77592535  0.26329628  0.41532768    -0.12360
F394        F  0.72661463  0.21341389  0.37388059    -0.14720
F395        F  0.80590147  0.18824024  0.46241794    -0.14720
F396        F  0.75441576  0.13723070  0.42246245    -0.12360
C397        C  0.62643306  0.98362398  0.28417920     0.25650
C398        C  0.64117884  0.01537724  0.26682876    -0.22460
C399        C  0.64085778  0.01642495  0.22660984     0.20560
C400        C  0.62524372  0.98675796  0.20464466     0.25590
C401        C  0.60885549  0.95522165  0.22236578    -0.22400
C402        C  0.61023729  0.95421630  0.26233493     0.20490
F403        F  0.59463220  0.92454565  0.28059975    -0.12360
F404        F  0.62544504  0.98057528  0.32281416    -0.14720
F405        F  0.62390963  0.98896953  0.16608270    -0.14720
F406        F  0.65455801  0.04607261  0.20850296    -0.12360
C407        C  0.61975436  0.01127845  0.50480110     0.25650
C408        C  0.61588114  0.00210960  0.46584061    -0.22460
C409        C  0.60307377  0.96832525  0.45611699     0.20560
C410        C  0.59137631  0.94408050  0.48451867     0.25590
C411        C  0.59311400  0.95322676  0.02291876    -0.22400
C412        C  0.60844635  0.98697413  0.03300371     0.20490
F413        F  0.60979451  0.99610021  0.07021290    -0.12360
F414        F  0.63228018  0.04337840  0.51575028    -0.14720
F415        F  0.57645486  0.91149777  0.47437764    -0.14720
F416        F  0.60018866  0.95833086  0.41905716    -0.12360
C417        C  0.47898671  0.93309047  0.31178733     0.25650
C418        C  0.45649352  0.94336935  0.30845261    -0.22460
C419        C  0.46714990  0.97527727  0.29468755     0.20560
C420        C  0.50035499  0.99848066  0.29166603     0.25590
C421        C  0.52292171  0.99004278  0.30332523    -0.22400
C422        C  0.51237842  0.95658731  0.30923004     0.20490
F423        F  0.53400767  0.94755773  0.31834470    -0.12360
F424        F  0.46918043  0.90168034  0.32251424    -0.14720
F425        F  0.51039866  0.03029921  0.28239417    -0.14720
F426        F  0.44569730  0.98506858  0.28797165    -0.12360
C427        C  0.57409880  0.14773224  0.20347444     0.25650
C428        C  0.54985694  0.15231688  0.21990738    -0.22460
C429        C  0.55122602  0.15822897  0.25942292     0.20560
C430        C  0.57426288  0.15665902  0.28238840     0.25590
C431        C  0.59583392  0.14788097  0.26667452    -0.22400
C432        C  0.59670428  0.14530596  0.22664960     0.20490
F433        F  0.61668394  0.13654855  0.21026809    -0.12360
F434        F  0.57345726  0.14157214  0.16538906    -0.14720
F435        F  0.57343056  0.16070838  0.32078346    -0.14720
F436        F  0.52882756  0.16338974  0.27622078    -0.12360
C437        C  0.54769765  0.12354748  0.45207726     0.25650
C438        C  0.57586607  0.12311092  0.46216633    -0.22460
C439        C  0.58741914  0.13092858  0.00018383     0.20560
C440        C  0.56908262  0.13514753  0.02814021     0.25590
C441        C  0.53912004  0.13162135  0.01853042    -0.22400
C442        C  0.52925843  0.12727870  0.48018224     0.20490
F443        F  0.50042805  0.12409132  0.47048534    -0.12360
F444        F  0.53682535  0.11841915  0.41535851    -0.14720
F445        F  0.57870022  0.13893608  0.06529245    -0.14720
F446        F  0.61478964  0.13154776  0.01105296    -0.12360
C447        C  0.81477191  0.40918535  0.07459918     0.25650
C448        C  0.82338995  0.41315829  0.11338525    -0.22460
C449        C  0.82831800  0.38928012  0.13069319     0.20560
C450        C  0.82705828  0.36351281  0.10899537     0.25590
C451        C  0.82002227  0.36041507  0.06960695    -0.22400
C452        C  0.81247174  0.38285595  0.05312070     0.20490
F453        F  0.80523540  0.38106886  0.01533320    -0.12360
F454        F  0.80972557  0.43156197  0.05705245    -0.14720
F455        F  0.83431276  0.34261427  0.12625964    -0.14720
F456        F  0.83724041  0.39253290  0.16806476    -0.12360
C457        C  0.86477518  0.40255278  0.29696400     0.25650
C458        C  0.85079666  0.42184393  0.30198041    -0.22460
C459        C  0.83101230  0.41668469  0.33378161     0.20560
C460        C  0.82805416  0.39479851  0.36238330     0.25590
C461        C  0.84475019  0.37772875  0.35912339    -0.22400
C462        C  0.86158899  0.38047152  0.32505164     0.20490
F463        F  0.87711212  0.36373427  0.31983692    -0.12360
F464        F  0.88269130  0.40608213  0.26528620    -0.14720
F465        F  0.81032435  0.39173689  0.39403854    -0.14720
F466        F  0.81664119  0.43458339  0.33851304    -0.12360
C467        C  0.98592653  0.48982256  0.14027745     0.25650
C468        C  0.95333845  0.46780744  0.15014940    -0.22460
C469        C  0.94236425  0.43490494  0.16003945     0.20560
C470        C  0.96493119  0.42531579  0.16480324     0.25590
C471        C  0.99836626  0.44890002  0.15979184    -0.22400
C472        C  0.00835253  0.48013683  0.14413455     0.20490
F473        F  0.04040625  0.50264998  0.13686063    -0.12360
F474        F  0.99674781  0.52204722  0.13221002    -0.14720
F475        F  0.95465457  0.39481196  0.17928789    -0.14720
F476        F  0.91069374  0.41369831  0.17020735    -0.12360
C477        C  0.23510680  0.75974579  0.41406657     0.25650
C478        C  0.23102471  0.78348057  0.39530101    -0.22460
C479        C  0.20198968  0.78316573  0.40115632     0.20560
C480        C  0.17702269  0.75866288  0.42427574     0.25590
C481        C  0.18138976  0.73513862  0.44324582    -0.22400
C482        C  0.21064470  0.73593019  0.43775516     0.20490
F483        F  0.21483983  0.71245219  0.45390109    -0.12360
F484        F  0.26346170  0.76028994  0.41017431    -0.14720
F485        F  0.14832293  0.75744353  0.42764846    -0.14720
F486        F  0.19815952  0.80693608  0.38524956    -0.12360
C487        C  0.02562393  0.63341097  0.11351856     0.25650
C488        C  0.02491176  0.64432244  0.07631400    -0.22460
C489        C  0.99479894  0.63948763  0.06309486     0.20560
C490        C  0.96592858  0.62123090  0.08450124     0.25590
C491        C  0.96645698  0.60856883  0.12032971    -0.22400
C492        C  0.99678569  0.61596431  0.13528116     0.20490
F493        F  0.99798020  0.60352122  0.16967593    -0.12360
F494        F  0.05366056  0.63740187  0.12791760    -0.14720
F495        F  0.93709043  0.61447896  0.06932609    -0.14720
F496        F  0.99251975  0.65025858  0.02806818    -0.12360
C497        C  0.96231288  0.60010335  0.33461573     0.25650
C498        C  0.97100413  0.59079047  0.30063205    -0.22460
C499        C  0.00339551  0.59912236  0.29556035     0.20560
C500        C  0.02609125  0.61384976  0.32521059     0.25590
C501        C  0.01662062  0.62000146  0.36096366    -0.22400
C502        C  0.98490404  0.61451328  0.36468308     0.20490
F503        F  0.97501861  0.62120721  0.39808885    -0.12360
F504        F  0.93122494  0.59269180  0.33995430    -0.14720
F505        F  0.05662131  0.61974786  0.31952310    -0.14720
F506        F  0.01271622  0.59157512  0.26227301    -0.12360
C507        C  0.92155161  0.48070122  0.50351537     0.25650
C508        C  0.92697120  0.45727240  0.52039631    -0.22460
C509        C  0.95439760  0.46789904  0.54383405     0.20560
C510        C  0.97955090  0.50100953  0.54359742     0.25590
C511        C  0.97667341  0.52379123  0.52130282    -0.22400
C512        C  0.94650775  0.51427966  0.50421473     0.20490
F513        F  0.94316964  0.53618231  0.48297324    -0.12360
F514        F  0.89474895  0.47065555  0.48129755    -0.14720
F515        F  0.00854944  0.50979880  0.56020395    -0.14720
F516        F  0.95915388  0.44539554  0.56164746    -0.12360
C517        C  0.14712687  0.59268820  0.10867512     0.25650
C518        C  0.14124789  0.58454165  0.06964467    -0.22460
C519        C  0.14306389  0.55736424  0.05594950     0.20560
C520        C  0.14565651  0.53600725  0.08128049     0.25590
C521        C  0.14664517  0.54137490  0.12096362    -0.22400
C522        C  0.15001997  0.57147560  0.13404696     0.20490
F523        F  0.15298883  0.57885662  0.17200202    -0.12360
F524        F  0.14644174  0.61903298  0.12299669    -0.14720
F525        F  0.14343125  0.50812770  0.06705937    -0.14720
F526        F  0.13944739  0.54972395  0.01804197    -0.12360
C527        C  0.12480094  0.57475523  0.34379487     0.25650
C528        C  0.11516941  0.56211345  0.38096066    -0.22460
C529        C  0.11160687  0.53141720  0.38997765     0.20560
C530        C  0.11457091  0.51233975  0.36143696     0.25590
C531        C  0.12072486  0.52355802  0.32355831    -0.22400
C532        C  0.12735701  0.55552150  0.31532668     0.20490
F533        F  0.13445938  0.56734402  0.27907183    -0.12360
F534        F  0.12920360  0.60455634  0.33407300    -0.14720
F535        F  0.10853345  0.48172126  0.37018212    -0.14720
F536        F  0.10387353  0.51919908  0.42601297    -0.12360
C537        C  0.53359780  0.74771057  0.04208695     0.25650
C538        C  0.55633163  0.74186377  0.05949929    -0.22460
C539        C  0.57447261  0.76169011  0.09116585     0.20560
C540        C  0.56927276  0.78622744  0.10574974     0.25590
C541        C  0.54502340  0.79053213  0.08977802    -0.22400
C542        C  0.52775210  0.77152545  0.05730789     0.20490
F543        F  0.50502399  0.77596353  0.04027632    -0.12360
F544        F  0.51526710  0.72867761  0.01200756    -0.14720
F545        F  0.58675195  0.80458997  0.13660759    -0.14720
F546        F  0.59655926  0.75656703  0.10869429    -0.12360
C547        C  0.43079120  0.45469694  0.98090103     0.25650
C548        C  0.42518433  0.43934759  0.01655341    -0.22460
C549        C  0.42859018  0.45697403  0.05031171     0.20560
C550        C  0.44147302  0.49087699  0.04881818     0.25590
C551        C  0.45074587  0.50703556  0.01355348    -0.22400
C552        C  0.44397050  0.48887905  0.97942090     0.20490
F553        F  0.45350961  0.50467446  0.44538530    -0.12360
F554        F  0.42769446  0.43756626  0.44822748    -0.14720
F555        F  0.44925004  0.50859242  0.08202610    -0.14720
F556        F  0.42390866  0.44226561  0.08491934    -0.12360
C557        C  0.46019491  0.57594422  0.40994981     0.25650
C558        C  0.45590428  0.60061550  0.42614589    -0.22460
C559        C  0.42511948  0.59736992  0.42172654     0.20560
C560        C  0.39928575  0.56984052  0.40185292     0.25590
C561        C  0.40336689  0.54435635  0.38786968    -0.22400
C562        C  0.43419855  0.54809770  0.39182279     0.20490
F563        F  0.43907839  0.52416660  0.37845252    -0.12360
F564        F  0.48888951  0.57727096  0.41434263    -0.14720
F565        F  0.37004173  0.56734501  0.39791009    -0.14720
F566        F  0.41985631  0.62043013  0.43742347    -0.12360
C567        C  0.40175644  0.52790539  0.15263136     0.25650
C568        C  0.40567373  0.53539372  0.19180169    -0.22460
C569        C  0.42973394  0.56764220  0.20417819     0.20560
C570        C  0.45106729  0.59145275  0.17775151     0.25590
C571        C  0.44766838  0.58365662  0.13855155    -0.22400
C572        C  0.42201366  0.55204638  0.12616294     0.20490
F573        F  0.41802639  0.54363719  0.08847023    -0.12360
F574        F  0.37899147  0.49682990  0.14010741    -0.14720
F575        F  0.47537978  0.62176065  0.19043878    -0.14720
F576        F  0.43401835  0.57528648  0.24206725    -0.12360
C577        C  0.73779848  0.51053948  0.24461714     0.25650
C578        C  0.74256108  0.53458432  0.27217399    -0.22460
C579        C  0.77460492  0.55811376  0.28422276     0.20560
C580        C  0.80138002  0.55764949  0.26853554     0.25590
C581        C  0.79633667  0.53352718  0.24074344    -0.22400
C582        C  0.76417802  0.51012300  0.22904897     0.20490
F583        F  0.75809451  0.48657020  0.20226613    -0.12360
F584        F  0.70717988  0.48703239  0.23262628    -0.14720
F585        F  0.83201772  0.58005424  0.28135528    -0.14720
F586        F  0.78003117  0.58190929  0.31027819    -0.12360
C587        C  0.65037906  0.64291995  0.38675213     0.25650
C588        C  0.65829178  0.61919230  0.39766392    -0.22460
C589        C  0.65317708  0.60898508  0.43597978     0.20560
C590        C  0.63578221  0.61773079  0.46060198     0.25590
C591        C  0.62297517  0.63682461  0.44751913    -0.22400
C592        C  0.63261566  0.65137084  0.41129427     0.20490
F593        F  0.62191601  0.67083073  0.39798484    -0.12360
F594        F  0.65660081  0.65511272  0.35065536    -0.14720
F595        F  0.62912072  0.60513165  0.49651780    -0.14720
F596        F  0.66126554  0.58716716  0.44841720    -0.12360
C597        C  0.60741842  0.58392756  0.12027773     0.25650
C598        C  0.60385051  0.61142437  0.12628427    -0.22460
C599        C  0.61900646  0.63191286  0.15858303     0.20560
C600        C  0.63414826  0.62309356  0.18607659     0.25590
C601        C  0.63480805  0.59389835  0.18164758    -0.22400
C602        C  0.62275534  0.57535497  0.14764766     0.20490
F603        F  0.62265492  0.54683550  0.14258507    -0.12360
F604        F  0.59439352  0.56393705  0.08899368    -0.14720
F605        F  0.64654611  0.64207806  0.21818531    -0.14720
F606        F  0.61763782  0.65946949  0.16487035    -0.12360
C607        C  0.50498989  0.46629477  0.34340493     0.25650
C608        C  0.52876563  0.50049679  0.34086515    -0.22460
C609        C  0.51919811  0.52363199  0.33632624     0.20560
C610        C  0.48680492  0.51238601  0.32857137     0.25590
C611        C  0.46390275  0.47824083  0.32734688    -0.22400
C612        C  0.47251330  0.45525637  0.33643160     0.20490
F613        F  0.44989692  0.42211794  0.33571873    -0.12360
F614        F  0.51335225  0.44328904  0.34825348    -0.14720
F615        F  0.47818601  0.53459429  0.31963534    -0.14720
F616        F  0.54155942  0.55687411  0.33579317    -0.12360
C617        C  0.56909671  0.40842747  0.38774706     0.25650
C618        C  0.59460866  0.44045739  0.40013815    -0.22460
C619        C  0.59371588  0.44964414  0.43828644     0.20560
C620        C  0.56704569  0.42893339  0.46207610     0.25590
C621        C  0.54015394  0.39831883  0.44850775    -0.22400
C622        C  0.54231640  0.38780389  0.41152703     0.20490
F623        F  0.51746625  0.35849421  0.39722996    -0.12360
F624        F  0.56882183  0.39761043  0.35159853    -0.14720
F625        F  0.56715941  0.43958892  0.49827634    -0.14720
F626        F  0.61776101  0.47959451  0.45219524    -0.12360
C627        C  0.55343018  0.41885265  0.13398421     0.25650
C628        C  0.52084907  0.39558926  0.14406947    -0.22460
C629        C  0.51199700  0.39123869  0.18276608     0.20560
C630        C  0.53477640  0.41149750  0.21074643     0.25590
C631        C  0.56706113  0.43644360  0.20051812    -0.22400
C632        C  0.57639101  0.43892223  0.16189301     0.20490
F633        F  0.60729907  0.46179991  0.15065935    -0.12360
F634        F  0.56285245  0.42272702  0.09680062    -0.14720
F635        F  0.52464131  0.40743690  0.24766666    -0.14720
F636        F  0.48064782  0.36906410  0.19329045    -0.12360
Zn637      Zn  0.65163261  0.52674923  0.74764838     1.49720
Zn638      Zn  0.60246680  0.48660780  0.80832198     1.49360
Zn639      Zn  0.66601645  0.53714141  0.84334990     1.49110
Zn640      Zn  0.62505062  0.56060262  0.79737910     1.49480
O641        O  0.63889153  0.52995141  0.79851502    -1.82070
O642        O  0.61935856  0.48252984  0.72112897    -0.72700
O643        O  0.61322409  0.45785746  0.83650338    -0.72520
O644        O  0.70768906  0.53997745  0.81843072    -0.72040
O645        O  0.57838337  0.46189163  0.76194121    -0.72720
O646        O  0.69443752  0.53187706  0.75575220    -0.72320
O647        O  0.63818217  0.49620308  0.88061173    -0.72900
O648        O  0.64580273  0.59535657  0.83642040    -0.72290
O649        O  0.57212554  0.49152135  0.84034690    -0.73050
O650        O  0.67113919  0.57846087  0.87430714    -0.72440
O651        O  0.57900758  0.53636849  0.81170111    -0.72900
O652        O  0.62885064  0.58085401  0.74697512    -0.72810
O653        O  0.65290999  0.56097350  0.71137823    -0.72600
C654        C  0.58960012  0.46130319  0.72936532     0.79190
C655        C  0.61771088  0.46570872  0.87152590     0.79680
C656        C  0.71372936  0.53624419  0.78329257     0.78640
C657        C  0.66025146  0.59760899  0.86755789     0.79010
C658        C  0.56215100  0.51060863  0.83188102     0.80150
C659        C  0.64026517  0.57865406  0.71517663     0.79200
Zn660      Zn  0.48408400  0.60938532  0.52861537     1.49720
Zn661      Zn  0.54279186  0.64623785  0.58311976     1.49360
Zn662      Zn  0.54346961  0.59669198  0.52772754     1.49110
Zn663      Zn  0.54853179  0.65853303  0.49045892     1.49480
O664        O  0.53117506  0.62836404  0.53256360    -1.82070
O665        O  0.46265205  0.60803542  0.57759312    -0.72700
O666        O  0.57961450  0.64195638  0.60496395    -0.72520
O667        O  0.50399526  0.55249131  0.51757112    -0.72040
O668        O  0.50289954  0.61879847  0.61751877    -0.72720
O669        O  0.46301025  0.56162028  0.51644144    -0.72320
O670        O  0.56627030  0.59524134  0.57459850    -0.72900
O671        O  0.59018000  0.65973740  0.96864111    -0.72290
O672        O  0.55352513  0.69296330  0.57830513    -0.73050
O673        O  0.57704040  0.60948940  0.98769189    -0.72440
O674        O  0.55473050  0.70186565  0.51498598    -0.72900
O675        O  0.51126626  0.63553816  0.94965246    -0.72810
O676        O  0.47079878  0.62788593  0.98647750    -0.72600
C677        C  0.47249016  0.60578714  0.61041014     0.79190
C678        C  0.58244848  0.61679553  0.60051243     0.79680
C679        C  0.47382784  0.54242399  0.51439721     0.78640
C680        C  0.59558691  0.63587756  0.96908055     0.79010
C681        C  0.55576611  0.71102619  0.55007293     0.80150
C682        C  0.48076050  0.62433659  0.95431332     0.79200
Zn683      Zn  0.04293716  0.62260870  0.97967123     1.49720
Zn684      Zn  0.11159565  0.65193564  0.51967888     1.49360
Zn685      Zn  0.07584154  0.57965840  0.98252941     1.49110
Zn686      Zn  0.10045870  0.63711491  0.92762361     1.49480
O687        O  0.08372687  0.62325622  0.97779601    -1.82070
O688        O  0.04819341  0.65847761  0.51394838    -0.72700
O689        O  0.13289841  0.62859582  0.54813919    -0.72520
O690        O  0.03058850  0.54989008  0.99992536    -0.72040
O691        O  0.07765128  0.65269435  0.55749459    -0.72720
O692        O  0.00769812  0.58017728  0.00252753    -0.72320
O693        O  0.10477833  0.57849111  0.52123758    -0.72900
O694        O  0.11770326  0.61035612  0.90541690    -0.72290
O695        O  0.14709377  0.69655855  0.99265504    -0.73050
O696        O  0.08552895  0.56272077  0.93498366    -0.72440
O697        O  0.13594443  0.68341120  0.93044330    -0.72900
O698        O  0.06617103  0.63198751  0.89089994    -0.72810
O699        O  0.02589626  0.62461635  0.92826654    -0.72600
C700        C  0.05254508  0.65411358  0.54861543     0.79190
C701        C  0.12620653  0.59857410  0.54489532     0.79680
C702        C  0.00662007  0.55313927  0.00778435     0.78640
C703        C  0.10601805  0.57936423  0.90884398     0.79010
C704        C  0.15281093  0.70384797  0.95686932     0.80150
C705        C  0.03761342  0.62680234  0.89509701     0.79200
Zn706      Zn  0.89600926  0.55650164  0.71364858     1.49720
Zn707      Zn  0.84141266  0.47758824  0.71220884     1.49360
Zn708      Zn  0.89194737  0.50801610  0.64618211     1.49110
Zn709      Zn  0.91402583  0.50426346  0.73049226     1.49480
O710        O  0.88558075  0.51199764  0.70093563    -1.82070
O711        O  0.85264762  0.55428292  0.72450867    -0.72700
O712        O  0.82635196  0.44276076  0.67014206    -0.72520
O713        O  0.92041721  0.55360193  0.62282680    -0.72040
O714        O  0.81606320  0.49942045  0.72155310    -0.72720
O715        O  0.92802233  0.58742101  0.67202327    -0.72320
O716        O  0.85095423  0.47250421  0.61852002    -0.72900
O717        O  0.93587612  0.48835488  0.69819423    -0.72290
O718        O  0.83732411  0.45144518  0.75915010    -0.73050
O719        O  0.91898659  0.48814513  0.63909509    -0.72440
O720        O  0.88938306  0.46744910  0.76647653    -0.72900
O721        O  0.94700888  0.54432040  0.75950596    -0.72810
O722        O  0.92410292  0.57446972  0.76161662    -0.72600
C723        C  0.82325857  0.52920553  0.72768096     0.79190
C724        C  0.83275535  0.44439260  0.63458599     0.79680
C725        C  0.93581477  0.58228915  0.63879090     0.78640
C726        C  0.93478990  0.48195525  0.66285776     0.79010
C727        C  0.85943175  0.44862955  0.77496644     0.80150
C728        C  0.94603733  0.56893312  0.77238423     0.79200
Zn729      Zn  0.61829981  0.04018018  0.85363412     1.49720
Zn730      Zn  0.58741930  0.08361233  0.85663178     1.49360
Zn731      Zn  0.64203785  0.09641588  0.91211564     1.49110
Zn732      Zn  0.65589646  0.10939182  0.81729007     1.49480
O733        O  0.62684780  0.08437170  0.86026461    -1.82070
O734        O  0.57803413  0.01304441  0.82209338    -0.72700
O735        O  0.57424425  0.09562380  0.90472040    -0.72520
O736        O  0.63527162  0.05743491  0.94388135    -0.72040
O737        O  0.55358889  0.04063789  0.83586381    -0.72720
O738        O  0.61272931  0.01627769  0.90176886    -0.72320
O739        O  0.61911886  0.11630220  0.93992365    -0.72900
O740        O  0.70051218  0.14281535  0.84620288    -0.72290
O741        O  0.59003947  0.11514040  0.81914930    -0.73050
O742        O  0.68869829  0.13013039  0.90842611    -0.72440
O743        O  0.63593193  0.13360062  0.78657919    -0.72900
O744        O  0.65369851  0.07201264  0.77998193    -0.72810
O745        O  0.65549678  0.04304805  0.82702477    -0.72600
C746        C  0.55346074  0.01620098  0.82043621     0.79190
C747        C  0.59077642  0.11143735  0.93413210     0.79680
C748        C  0.62199492  0.02666656  0.93564841     0.78640
C749        C  0.70862255  0.14716476  0.88201416     0.79010
C750        C  0.60887589  0.13232681  0.79225188     0.80150
C751        C  0.65245554  0.04573908  0.79166882     0.79200
Zn752      Zn  0.51653717  0.88841029  0.68320406     1.49720
Zn753      Zn  0.48443795  0.83135119  0.61947220     1.49360
Zn754      Zn  0.51103414  0.90245468  0.59568116     1.49110
Zn755      Zn  0.56384410  0.88869142  0.62218419     1.49480
O756        O  0.51906705  0.87677128  0.63016618    -1.82070
O757        O  0.47344153  0.85498114  0.70721250    -0.72700
O758        O  0.45806184  0.82728363  0.57163570    -0.72520
O759        O  0.51696434  0.94100641  0.62251454    -0.72040
O760        O  0.44922840  0.81543264  0.66234561    -0.72720
O761        O  0.51687030  0.93015499  0.68409801    -0.72320
O762        O  0.46665070  0.87804498  0.57318151    -0.72900
O763        O  0.58401600  0.91756966  0.57524867    -0.72290
O764        O  0.50800431  0.80688555  0.60831432    -0.73050
O765        O  0.54305113  0.92182231  0.55378019    -0.72440
O766        O  0.56201012  0.84492590  0.61289717    -0.72900
O767        O  0.59193050  0.92119184  0.66539419    -0.72810
O768        O  0.55756758  0.90385085  0.71424604    -0.72600
C769        C  0.44833983  0.82865040  0.69409720     0.79190
C770        C  0.45071864  0.84823300  0.56113161     0.79680
C771        C  0.51859073  0.94888944  0.65742532     0.78640
C772        C  0.57220621  0.92862335  0.55140143     0.79010
C773        C  0.53803148  0.81533004  0.60540378     0.80150
C774        C  0.58551063  0.92450409  0.69998816     0.79200
Zn775      Zn  0.48919155  0.13789755  0.61873707     1.49720
Zn776      Zn  0.40926502  0.08065965  0.61894689     1.49360
Zn777      Zn  0.46090456  0.06538013  0.59133499     1.49110
Zn778      Zn  0.45945838  0.08336777  0.67936508     1.49480
O779        O  0.45421158  0.09230455  0.62658792    -1.82070
O780        O  0.46634282  0.16239373  0.60769308    -0.72700
O781        O  0.38991562  0.05338052  0.56964055    -0.72520
O782        O  0.49294460  0.09175325  0.55131062    -0.72040
O783        O  0.41208419  0.12498401  0.60999488    -0.72720
O784        O  0.51682034  0.14377282  0.57226824    -0.72320
O785        O  0.42075147  0.03157772  0.56402197    -0.72900
O786        O  0.48222456  0.05939196  0.67891589    -0.72290
O787        O  0.37941679  0.04685927  0.66121499    -0.73050
O788        O  0.48085715  0.04457334  0.61815024    -0.72440
O789        O  0.41618732  0.04982539  0.70243322    -0.72900
O790        O  0.49181740  0.12335562  0.71126235    -0.72810
O791        O  0.52276494  0.15234872  0.66233488    -0.72600
C792        C  0.43660873  0.15434146  0.60315155     0.79190
C793        C  0.39608753  0.03283334  0.55421322     0.79680
C794        C  0.51468832  0.12233113  0.54846937     0.78640
C795        C  0.48882446  0.04527186  0.65281182     0.79010
C796        C  0.38678030  0.03599429  0.69056757     0.80150
C797        C  0.51998327  0.14360532  0.69722762     0.79200
Zn798      Zn  0.31175671  0.85464585  0.81717186     1.49720
Zn799      Zn  0.32529949  0.86861372  0.91124555     1.49360
Zn800      Zn  0.37093299  0.85988583  0.85720392     1.49110
Zn801      Zn  0.36536548  0.92429143  0.85482472     1.49480
O802        O  0.34217275  0.87698688  0.86000414    -1.82070
O803        O  0.26797762  0.81825749  0.84493711    -0.72700
O804        O  0.34877203  0.85397644  0.94631147    -0.72520
O805        O  0.35300017  0.81871499  0.82620496    -0.72040
O806        O  0.28027857  0.83171972  0.90709149    -0.72720
O807        O  0.33298892  0.83490497  0.78120077    -0.72320
O808        O  0.38318195  0.85057339  0.90762944    -0.72900
O809        O  0.40953789  0.93871003  0.83591655    -0.72290
O810        O  0.32836018  0.90816543  0.93770843    -0.73050
O811        O  0.41134812  0.89291777  0.83070536    -0.72440
O812        O  0.36691765  0.94889482  0.90294686    -0.72900
O813        O  0.34707931  0.93802957  0.81354217    -0.72810
O814        O  0.31121286  0.89115858  0.78297994    -0.72600
C815        C  0.26077649  0.81320050  0.88087157     0.79190
C816        C  0.37160139  0.84841519  0.94081583     0.79680
C817        C  0.34888444  0.82132033  0.79099300     0.78640
C818        C  0.42380758  0.92377768  0.82531510     0.79010
C819        C  0.34897484  0.93899157  0.93264862     0.80150
C820        C  0.32789662  0.92311613  0.78561235     0.79200
Zn821      Zn  0.38108940  0.44848395  0.75733991     1.49720
Zn822      Zn  0.31134283  0.39988602  0.79100074     1.49360
Zn823      Zn  0.36619898  0.44866427  0.84761932     1.49110
Zn824      Zn  0.34512602  0.48246288  0.79040174     1.49480
O825        O  0.35036425  0.44474794  0.79580099    -1.82070
O826        O  0.36543564  0.40598506  0.72954578    -0.72700
O827        O  0.31182638  0.36890359  0.83278009    -0.72520
O828        O  0.41169609  0.46326699  0.84355299    -0.72040
O829        O  0.31251252  0.37543859  0.74334587    -0.72720
O830        O  0.42254423  0.46091300  0.78216159    -0.72320
O831        O  0.34997089  0.40537658  0.87293918    -0.72900
O832        O  0.36750993  0.51646580  0.83467001    -0.72290
O833        O  0.27276723  0.40624766  0.78396170    -0.73050
O834        O  0.37037676  0.48581916  0.88024176    -0.72440
O835        O  0.29692391  0.46185160  0.77958902    -0.72900
O836        O  0.37028609  0.51098168  0.74503450    -0.72810
O837        O  0.39268322  0.48462895  0.71950884    -0.72600
C838        C  0.33739100  0.37985042  0.72514985     0.79190
C839        C  0.33093190  0.37566617  0.86142167     0.79680
C840        C  0.43091521  0.46669365  0.81701391     0.78640
C841        C  0.37739135  0.51397284  0.86758325     0.79010
C842        C  0.27179908  0.43225323  0.77666843     0.80150
C843        C  0.38810150  0.50869100  0.71987929     0.79200
Zn844      Zn  0.43192817  0.32127408  0.58479426     1.49720
Zn845      Zn  0.47141390  0.38551742  0.53740572     1.49360
Zn846      Zn  0.44046407  0.31886119  0.49012849     1.49110
Zn847      Zn  0.39374051  0.33764845  0.52787478     1.49480
O848        O  0.43536677  0.34053103  0.53509861    -1.82070
O849        O  0.47301647  0.34858296  0.61694483    -0.72700
O850        O  0.50455396  0.39642063  0.99680041    -0.72520
O851        O  0.43199438  0.27365923  0.51139367    -0.72040
O852        O  0.49671580  0.39642495  0.58593655    -0.72720
O853        O  0.42472210  0.27692637  0.57443828    -0.72320
O854        O  0.48777153  0.34885156  0.96634681    -0.72900
O855        O  0.36616365  0.30593366  0.98725466    -0.72290
O856        O  0.45396169  0.41442035  0.53155182    -0.73050
O857        O  0.40707555  0.31669528  0.94928077    -0.72440
O858        O  0.40196749  0.38163770  0.51281848    -0.72900
O859        O  0.36752644  0.32813750  0.57517969    -0.72810
O860        O  0.39550448  0.31844677  0.61721988    -0.72600
C861        C  0.49563433  0.37909239  0.61404746     0.79190
C862        C  0.50925585  0.37986813  0.97172998     0.79680
C863        C  0.42621566  0.26140279  0.54536144     0.78640
C864        C  0.37831849  0.31159487  0.95401986     0.79010
C865        C  0.42694968  0.41006345  0.51998014     0.80150
C866        C  0.37217698  0.32270557  0.60926969     0.79200
Zn867      Zn  0.11483251  0.44062878  0.66783562     1.49720
Zn868      Zn  0.10601923  0.43725145  0.76199149     1.49360
Zn869      Zn  0.08975477  0.47980136  0.71287251     1.49110
Zn870      Zn  0.04632508  0.40182080  0.70664826     1.49480
O871        O  0.09054514  0.44023959  0.71246168    -1.82070
O872        O  0.14963141  0.43135042  0.68933688    -0.72700
O873        O  0.12314028  0.47941602  0.79366474    -0.72520
O874        O  0.12150956  0.51421267  0.67829678    -0.72040
O875        O  0.14087148  0.42787390  0.75275222    -0.72720
O876        O  0.13535685  0.48658392  0.63941415    -0.72320
O877        O  0.09794364  0.50080567  0.76364672    -0.72900
O878        O  0.01843865  0.41553538  0.68101827    -0.72290
O879        O  0.06957177  0.40267083  0.79505277    -0.73050
O880        O  0.04810056  0.46999257  0.69168181    -0.72440
O881        O  0.02639550  0.38245162  0.75678973    -0.72900
O882        O  0.04463916  0.36768734  0.67187615    -0.72810
O883        O  0.07871721  0.40544918  0.63106269    -0.72600
C884        C  0.15639676  0.42705872  0.72362582     0.79190
C885        C  0.11410819  0.50025318  0.79192348     0.79680
C886        C  0.13522638  0.51292909  0.64800662     0.78640
C887        C  0.02292433  0.44433675  0.67804777     0.79010
C888        C  0.03877711  0.38496056  0.78962740     0.80150
C889        C  0.05125940  0.37865195  0.63804487     0.79200
Zn890      Zn  0.85448407  0.36044767  0.97688585     1.49720
Zn891      Zn  0.92460796  0.37222370  0.97571194     1.49360
Zn892      Zn  0.86511168  0.30876789  0.51749737     1.49110
Zn893      Zn  0.87506792  0.32144614  0.92561406     1.49480
O894        O  0.88005369  0.33978483  0.97479897    -1.82070
O895        O  0.88074075  0.40543977  0.00143419    -0.72700
O896        O  0.94380664  0.36052322  0.51593664    -0.72520
O897        O  0.84482156  0.32840682  0.55448582    -0.72040
O898        O  0.93068639  0.41478898  0.99229372    -0.72720
O899        O  0.81618942  0.33408842  0.50987792    -0.72320
O900        O  0.90768226  0.31435967  0.54579253    -0.72900
O901        O  0.83887283  0.27623531  0.92876294    -0.72290
O902        O  0.94963672  0.37469567  0.92847725    -0.73050
O903        O  0.82880915  0.26292096  0.99084743    -0.72440
O904        O  0.91529349  0.32425742  0.90550563    -0.72900
O905        O  0.86276509  0.34511477  0.88874453    -0.72810
O906        O  0.84176411  0.36738063  0.92560357    -0.72600
C907        C  0.91163661  0.42394858  0.00409095     0.79190
C908        C  0.93725896  0.33930009  0.54163478     0.79680
C909        C  0.82570714  0.33821729  0.54433522     0.78640
C910        C  0.82177556  0.25611049  0.95493801     0.79010
C911        C  0.94347476  0.35074475  0.90603839     0.80150
C912        C  0.84916635  0.36181305  0.89274541     0.79200
C913        C  0.02156386  0.38913990  0.58779544     0.25650
C914        C  0.02384083  0.36579654  0.60974134    -0.22460
C915        C  0.99661798  0.33263360  0.60998989     0.20560
C916        C  0.96811126  0.32317956  0.58817929     0.25590
C917        C  0.96597587  0.34693529  0.56653848    -0.22400
C918        C  0.99323259  0.38017527  0.56738932     0.20490
F919        F  0.99232655  0.40509821  0.54964186    -0.12360
F920        F  0.04587681  0.42178877  0.58846813    -0.14720
F921        F  0.94280081  0.29104702  0.58839133    -0.14720
F922        F  0.99747557  0.30948755  0.63168630    -0.12360
C923        C  0.96013286  0.33655422  0.84448099     0.25650
C924        C  0.96895513  0.35437500  0.87929669    -0.22460
C925        C  0.00223625  0.37759365  0.88688211     0.20560
C926        C  0.02580443  0.38515076  0.85882424     0.25590
C927        C  0.01643781  0.36987510  0.82249251    -0.22400
C928        C  0.98364821  0.34429221  0.81633549     0.20490
F929        F  0.97392190  0.32805940  0.78216262    -0.12360
F930        F  0.92838596  0.31338703  0.83635177    -0.14720
F931        F  0.05729474  0.40948194  0.86626845    -0.14720
F932        F  0.01189039  0.39406977  0.92091751    -0.12360
C933        C  0.21058735  0.40460066  0.77572973     0.25650
C934        C  0.24139365  0.42828481  0.76110095    -0.22460
C935        C  0.24323900  0.44799857  0.73002773     0.20560
C936        C  0.21497935  0.44534539  0.71521562     0.25590
C937        C  0.18440364  0.42333275  0.73159565    -0.22400
C938        C  0.18235824  0.40243667  0.76143328     0.20490
F939        F  0.15304834  0.38071942  0.77768345    -0.12360
F940        F  0.20796708  0.38480451  0.80513591    -0.14720
F941        F  0.21784687  0.46604434  0.68675152    -0.14720
F942        F  0.27256378  0.47007246  0.71404697    -0.12360
C943        C  0.31771841  0.32939428  0.90773530     0.25650
C944        C  0.33663576  0.35034125  0.87791737    -0.22460
C945        C  0.36605322  0.35233512  0.86837057     0.20560
C946        C  0.37811710  0.33653055  0.89052985     0.25590
C947        C  0.36089879  0.31811146  0.92296688    -0.22400
C948        C  0.32946347  0.31303925  0.92974384     0.20490
F949        F  0.31104372  0.29427704  0.95957092    -0.12360
F950        F  0.28910916  0.32670166  0.91737362    -0.14720
F951        F  0.40813918  0.34204160  0.88221663    -0.14720
F952        F  0.38457231  0.37205112  0.83915096    -0.12360
C953        C  0.32359787  0.35245824  0.66130591     0.25650
C954        C  0.33490743  0.35446748  0.69864658    -0.22460
C955        C  0.35132601  0.33822611  0.70777396     0.20560
C956        C  0.35999437  0.32369000  0.67898405     0.25590
C957        C  0.35281565  0.32578885  0.64043855    -0.22400
C958        C  0.33221740  0.33796824  0.63233108     0.20490
F959        F  0.32313233  0.33906920  0.59590284    -0.12360
F960        F  0.30736035  0.36775576  0.65211311    -0.14720
F961        F  0.37803868  0.31044020  0.68858707    -0.14720
F962        F  0.36162418  0.33918923  0.74416331    -0.12360
C963        C  0.44757295  0.22381741  0.53946790     0.25650
C964        C  0.42364204  0.22951329  0.55342698    -0.22460
C965        C  0.40201445  0.20842587  0.58202623     0.20560
C966        C  0.40543456  0.18328600  0.59775302     0.25590
C967        C  0.43104365  0.17937304  0.58582901    -0.22400
C968        C  0.45140624  0.19918111  0.55568622     0.20610
F969        F  0.47538334  0.19490398  0.54207849    -0.12360
F970        F  0.46898130  0.24383116  0.51227509    -0.14720
F971        F  0.38492139  0.16409227  0.62604909    -0.14720
F972        F  0.37842727  0.21318158  0.59593294    -0.12360
C973        C  0.36597005  0.97615933  0.70004160     0.25650
C974        C  0.36255725  0.00337976  0.70801858    -0.22460
C975        C  0.34085452  0.00007634  0.73708816     0.20560
C976        C  0.32523318  0.97120542  0.75990918     0.25590
C977        C  0.33057848  0.94494235  0.75355757    -0.22400
C978        C  0.34996220  0.94724469  0.72220101     0.20490
F979        F  0.35716513  0.92342509  0.71630554    -0.12360
F980        F  0.38743453  0.97884850  0.67287471    -0.14720
F981        F  0.30702980  0.97002422  0.79022092    -0.14720
F982        F  0.33691473  0.02576250  0.74544445    -0.12360
C983        C  0.38288003  0.02110384  0.98536886     0.25650
C984        C  0.37556355  0.01034299  0.52328787    -0.22460
C985        C  0.35487534  0.97634310  0.53070649     0.20560
C986        C  0.34373925  0.95305089  0.00081003     0.25590
C987        C  0.35378553  0.96350083  0.96287056    -0.22400
C988        C  0.37206049  0.99792605  0.95531331     0.20490
F989        F  0.38115305  0.00922656  0.91909514    -0.12360
F990        F  0.40301368  0.05395808  0.97768539    -0.14720
F991        F  0.32559191  0.92025808  0.50948642    -0.14720
F992        F  0.34761072  0.96552705  0.56732159    -0.12360
C993        C  0.38830072  0.80272586  0.77572265     0.25650
C994        C  0.36734818  0.81325212  0.76256667    -0.22460
C995        C  0.36960568  0.82203960  0.72370986     0.20560
C996        C  0.39397762  0.82331172  0.70004301     0.25590
C997        C  0.41689820  0.81623958  0.71465566    -0.22400
C998        C  0.41310148  0.80491619  0.75230433     0.20490
F999        F  0.43477827  0.79792143  0.76724123    -0.12360
F1000       F  0.38665255  0.79268383  0.81235371    -0.14720
F1001       F  0.39724416  0.83473581  0.66380459    -0.14720
F1002       F  0.35001625  0.83197677  0.70925193    -0.12360
C1003       C  0.42520201  0.82702877  0.99707894     0.25650
C1004       C  0.42433696  0.83925016  0.53343796    -0.22460
C1005       C  0.40205258  0.84922403  0.54060958     0.20560
C1006       C  0.38290765  0.84980669  0.51106384     0.25590
C1007       C  0.38618743  0.84092434  0.97353891    -0.22400
C1008       C  0.40634412  0.82794087  0.96726100     0.20490
F1009       F  0.40913139  0.81767815  0.93187297    -0.12360
F1010       F  0.44649527  0.81715439  0.98955252    -0.14720
F1011       F  0.36315026  0.86154585  0.51877180    -0.14720
F1012       F  0.40029486  0.86033586  0.57591274    -0.12360
C1013       C  0.49867457  0.97937277  0.69315007     0.25650
C1014       C  0.52042689  0.97966079  0.66629667    -0.22460
C1015       C  0.53761419  0.00654085  0.64132180     0.20560
C1016       C  0.52953712  0.03052409  0.63946279     0.25590
C1017       C  0.50467001  0.02774900  0.66292168    -0.22400
C1018       C  0.49069975  0.00351017  0.69134043     0.20490
F1019       F  0.46586006  0.00027569  0.71315397    -0.12360
F1020       F  0.48143885  0.95309103  0.71678128    -0.14720
F1021       F  0.54350820  0.05442595  0.61229924    -0.14720
F1022       F  0.55936239  0.00739365  0.61581559    -0.12360
C1023       C  0.74637240  0.20698819  0.89473132     0.25650
C1024       C  0.74061997  0.17479153  0.89575392    -0.22460
C1025       C  0.76031440  0.16851723  0.91976684     0.20560
C1026       C  0.78595263  0.19435966  0.94146065     0.25590
C1027       C  0.79133241  0.22649116  0.94056035    -0.22400
C1028       C  0.77116980  0.23238779  0.91702341     0.20490
F1029       F  0.77591663  0.26329692  0.91529599    -0.12360
F1030       F  0.72660003  0.21341607  0.87385366    -0.14720
F1031       F  0.80587172  0.18822893  0.96240180    -0.14720
F1032       F  0.75438109  0.13722195  0.92244954    -0.12360
C1033       C  0.62637902  0.98358156  0.78419652     0.25650
C1034       C  0.64110904  0.01533752  0.76685436    -0.22460
C1035       C  0.64079850  0.01639243  0.72663510     0.20560
C1036       C  0.62520280  0.98672931  0.70466284     0.25590
C1037       C  0.60882473  0.95519006  0.72237682    -0.22400
C1038       C  0.61020371  0.95417798  0.76234484     0.20490
F1039       F  0.59461292  0.92450324  0.78060132    -0.12360
F1040       F  0.62538618  0.98052312  0.82283038    -0.14720
F1041       F  0.62387446  0.98894618  0.66610086    -0.14720
F1042       F  0.65448641  0.04604189  0.70853462    -0.12360
C1043       C  0.61971512  0.01127600  0.00477601     0.25650
C1044       C  0.61581583  0.00210473  0.96581565    -0.22460
C1045       C  0.60302203  0.96832438  0.95608764     0.20560
C1046       C  0.59136003  0.94408205  0.98449009     0.25590
C1047       C  0.59310799  0.95322531  0.52294351    -0.22400
C1048       C  0.60844960  0.98697336  0.53302838     0.20490
F1049       F  0.60977972  0.99609950  0.57023442    -0.12360
F1050       F  0.63222496  0.04337284  0.01572695    -0.14720
F1051       F  0.57644930  0.91150026  0.97434893    -0.14720
F1052       F  0.60012098  0.95833251  0.91902491    -0.12360
C1053       C  0.47887958  0.93319362  0.81158238     0.25650
C1054       C  0.45637364  0.94345714  0.80836317    -0.22460
C1055       C  0.46701106  0.97540158  0.79471245     0.20560
C1056       C  0.50021413  0.99862881  0.79174062     0.25590
C1057       C  0.52279293  0.99018270  0.80330150    -0.22400
C1058       C  0.51226841  0.95670830  0.80905973     0.20490
F1059       F  0.53390823  0.94766723  0.81805228    -0.12360
F1060       F  0.46909003  0.90175115  0.82216324    -0.14720
F1061       F  0.51023512  0.03046921  0.78259473    -0.14720
F1062       F  0.44554492  0.98518526  0.78807170    -0.12360
C1063       C  0.57410721  0.14775491  0.70343800     0.25650
C1064       C  0.54986869  0.15234877  0.71986263    -0.22460
C1065       C  0.55125119  0.15829396  0.75937110     0.20560
C1066       C  0.57429761  0.15674546  0.78234152     0.25590
C1067       C  0.59585924  0.14794816  0.76664173    -0.22400
C1068       C  0.59671913  0.14534530  0.72661938     0.20490
F1069       F  0.61669394  0.13657621  0.71024976    -0.12360
F1070       F  0.57345555  0.14156879  0.66535839    -0.14720
F1071       F  0.57348014  0.16082991  0.82073158    -0.14720
F1072       F  0.52885698  0.16346624  0.77615949    -0.12360
C1073       C  0.54773441  0.12364610  0.95212378     0.25650
C1074       C  0.57588919  0.12318188  0.96220899    -0.22460
C1075       C  0.58740571  0.13088934  0.50013571     0.20560
C1076       C  0.56906975  0.13511650  0.52808591     0.25590
C1077       C  0.53909709  0.13156744  0.51847658    -0.22400
C1078       C  0.52929409  0.12736719  0.98023436     0.20490
F1079       F  0.50047157  0.12419850  0.97053927    -0.12360
F1080       F  0.53687170  0.11854882  0.91540232    -0.14720
F1081       F  0.57870038  0.13893708  0.56523551    -0.14720
F1082       F  0.61478756  0.13153242  0.51100849    -0.12360
C1083       C  0.81477673  0.40918813  0.57459481     0.25650
C1084       C  0.82339384  0.41316265  0.61338116    -0.22460
C1085       C  0.82832206  0.38928564  0.63069204     0.20560
C1086       C  0.82706424  0.36351837  0.60899657     0.25590
C1087       C  0.82003020  0.36041974  0.56960774    -0.22400
C1088       C  0.81247851  0.38285872  0.55311859     0.20490
F1089       F  0.80524326  0.38107001  0.51533056    -0.12360
F1090       F  0.80972977  0.43156339  0.55704564    -0.14720
F1091       F  0.83431900  0.34262102  0.62626343    -0.14720
F1092       F  0.83724318  0.39253975  0.66806422    -0.12360
C1093       C  0.86478118  0.40256337  0.79696298     0.25650
C1094       C  0.85080022  0.42185248  0.80197711    -0.22460
C1095       C  0.83101238  0.41669048  0.83377570     0.20560
C1096       C  0.82805220  0.39480290  0.86237684     0.25590
C1097       C  0.84474936  0.37773416  0.85911883    -0.22400
C1098       C  0.86159291  0.38048071  0.82504986     0.20490
F1099       F  0.87711793  0.36374513  0.81983699    -0.12360
F1100       F  0.88270089  0.40609536  0.76528773    -0.14720
F1101       F  0.81031864  0.39173840  0.89402950    -0.14720
F1102       F  0.81663904  0.43458724  0.83850498    -0.12360
C1103       C  0.98592392  0.48981497  0.64027620     0.25650
C1104       C  0.95333687  0.46780244  0.65015431    -0.22460
C1105       C  0.94236249  0.43490122  0.66005072     0.20560
C1106       C  0.96492896  0.42531139  0.66481421     0.25590
C1107       C  0.99836362  0.44889377  0.65979631    -0.22400
C1108       C  0.00834932  0.48012847  0.64413326     0.20490
F1109       F  0.04040254  0.50263958  0.63685410    -0.12360
F1110       F  0.99674545  0.52203866  0.63220293    -0.14720
F1111       F  0.95465308  0.39480972  0.67930502    -0.14720
F1112       F  0.91069301  0.41369725  0.67022447    -0.12360
C1113       C  0.23508932  0.75976383  0.91417249     0.25650
C1114       C  0.23098851  0.78345192  0.89531843    -0.22460
C1115       C  0.20192583  0.78310018  0.90108214     0.20560
C1116       C  0.17695321  0.75860744  0.92420375     0.25590
C1117       C  0.18133935  0.73513125  0.94326290    -0.22400
C1118       C  0.21062102  0.73596030  0.93786342     0.20490
F1119       F  0.21483598  0.71252491  0.95409467    -0.12360
F1120       F  0.26346668  0.76034100  0.91035989    -0.14720
F1121       F  0.14822950  0.75734974  0.92749314    -0.14720
F1122       F  0.19807403  0.80682644  0.88508735    -0.12360
C1123       C  0.02563956  0.63339741  0.61350723     0.25650
C1124       C  0.02493254  0.64432669  0.57631091    -0.22460
C1125       C  0.99482329  0.63950554  0.56309892     0.20560
C1126       C  0.96595122  0.62124691  0.58450280     0.25590
C1127       C  0.96647437  0.60856824  0.62032219    -0.22400
C1128       C  0.99679986  0.61594814  0.63526730     0.20490
F1129       F  0.99798927  0.60348918  0.66965301    -0.12360
F1130       F  0.05367189  0.63737309  0.62789927    -0.14720
F1131       F  0.93711641  0.61451043  0.56933368    -0.14720
F1132       F  0.99254931  0.65029393  0.52808115    -0.12360
C1133       C  0.96229854  0.60010211  0.83461197     0.25650
C1134       C  0.97099626  0.59079871  0.80062619    -0.22460
C1135       C  0.00338975  0.59913725  0.79555651     0.20560
C1136       C  0.02608142  0.61386068  0.82521096     0.25590
C1137       C  0.01660406  0.62000073  0.86096623    -0.22400
C1138       C  0.98488558  0.61450789  0.86468360     0.20490
F1139       F  0.97499412  0.62119216  0.89809106    -0.12360
F1140       F  0.93120825  0.59268419  0.83994807    -0.14720
F1141       F  0.05661456  0.61976681  0.81952438    -0.14720
F1142       F  0.01271619  0.59159933  0.76226712    -0.12360
C1143       C  0.92153156  0.48069347  0.00351375     0.25650
C1144       C  0.92695248  0.45726558  0.02039486    -0.22460
C1145       C  0.95437797  0.46789320  0.04383453     0.20560
C1146       C  0.97952961  0.50100428  0.04359973     0.25590
C1147       C  0.97665132  0.52378514  0.02130459    -0.22400
C1148       C  0.94648610  0.51427240  0.00421474     0.20490
F1149       F  0.94314769  0.53617447  0.98297242    -0.12360
F1150       F  0.89472983  0.47064677  0.98129385    -0.14720
F1151       F  0.00852841  0.50979486  0.06020649    -0.14720
F1152       F  0.95913573  0.44539058  0.06164761    -0.12360
C1153       C  0.14713865  0.59269575  0.60868036     0.25650
C1154       C  0.14126555  0.58455190  0.56964881    -0.22460
C1155       C  0.14308067  0.55737341  0.55595550     0.20560
C1156       C  0.14566742  0.53601365  0.58128809     0.25590
C1157       C  0.14665114  0.54137949  0.62097119    -0.22400
C1158       C  0.15002591  0.57148036  0.63405386     0.20490
F1159       F  0.15298954  0.57885926  0.67200926    -0.12360
F1160       F  0.14645310  0.61904065  0.62300063    -0.14720
F1161       F  0.14344141  0.50813349  0.56706781    -0.14720
F1162       F  0.13946843  0.54973464  0.51804763    -0.12360
C1163       C  0.12478869  0.57475710  0.84379932     0.25650
C1164       C  0.11515756  0.56211454  0.88096481    -0.22460
C1165       C  0.11159869  0.53142005  0.88998191     0.20560
C1166       C  0.11456606  0.51234460  0.86144157     0.25590
C1167       C  0.12071954  0.52356303  0.82356295    -0.22400
C1168       C  0.12734790  0.55552518  0.81533118     0.20490
F1169       F  0.13444950  0.56734785  0.77907635    -0.12360
F1170       F  0.12918748  0.60455666  0.83407777    -0.14720
F1171       F  0.10853197  0.48172740  0.87018692    -0.14720
F1172       F  0.10386572  0.51920168  0.92601714    -0.12360
C1173       C  0.53357960  0.74770185  0.54208896     0.25650
C1174       C  0.55631702  0.74185912  0.55949939    -0.22460
C1175       C  0.57445644  0.76168554  0.59116646     0.20560
C1176       C  0.56925130  0.78621830  0.60575323     0.25590
C1177       C  0.54499816  0.79051843  0.58978413    -0.22400
C1178       C  0.52772860  0.77151229  0.55731298     0.20490
F1179       F  0.50499813  0.77594742  0.54028271    -0.12360
F1180       F  0.51525123  0.72866938  0.51200806    -0.14720
F1181       F  0.58672997  0.80458152  0.63661097    -0.14720
F1182       F  0.59654693  0.75656693  0.60869263    -0.12360
C1183       C  0.43078765  0.45469562  0.48090546     0.25650
C1184       C  0.42518380  0.43934723  0.51655810    -0.22460
C1185       C  0.42859211  0.45697449  0.55031650     0.20560
C1186       C  0.44147404  0.49087726  0.54882236     0.25590
C1187       C  0.45074368  0.50703492  0.51355699    -0.22400
C1188       C  0.44396607  0.48887759  0.47942471     0.20490
F1189       F  0.45351718  0.50467676  0.94538221    -0.12360
F1190       F  0.42770033  0.43756829  0.94822322    -0.14720
F1191       F  0.44925304  0.50859351  0.58202985    -0.14720
F1192       F  0.42391329  0.44226701  0.58492428    -0.12360
C1193       C  0.46019937  0.57594569  0.90994935     0.25650
C1194       C  0.45590872  0.60061672  0.92614628    -0.22460
C1195       C  0.42512360  0.59737068  0.92172809     0.20560
C1196       C  0.39928962  0.56984110  0.90185500     0.25590
C1197       C  0.40337084  0.54435721  0.88787097    -0.22400
C1198       C  0.43420279  0.54809901  0.89182273     0.20490
F1199       F  0.43908267  0.52416816  0.87845151    -0.12360
F1200       F  0.48889427  0.57727284  0.91434090    -0.14720
F1201       F  0.37004530  0.56734514  0.89791345    -0.14720
F1202       F  0.41986036  0.62043059  0.93742576    -0.12360
C1203       C  0.40175484  0.52790370  0.65263210     0.25650
C1204       C  0.40567149  0.53539254  0.69180232    -0.22460
C1205       C  0.42973055  0.56764161  0.70417847     0.20560
C1206       C  0.45106348  0.59145228  0.67775164     0.25590
C1207       C  0.44766520  0.58365564  0.63855185    -0.22400
C1208       C  0.42201158  0.55204475  0.62616350     0.20490
F1209       F  0.41802507  0.54363514  0.58847093    -0.12360
F1210       F  0.37899098  0.49682769  0.64010846    -0.14720
F1211       F  0.47537496  0.62176083  0.69043860    -0.14720
F1212       F  0.43401442  0.57528643  0.74206742    -0.12360
C1213       C  0.73779909  0.51054013  0.74460856     0.25650
C1214       C  0.74256207  0.53458598  0.77216412    -0.22460
C1215       C  0.77460633  0.55811767  0.78420943     0.20560
C1216       C  0.80138145  0.55765466  0.76852003     0.25590
C1217       C  0.79633778  0.53353145  0.74072911    -0.22400
C1218       C  0.76417866  0.51012479  0.72903833     0.20490
F1219       F  0.75809474  0.48657044  0.70225746    -0.12360
F1220       F  0.70718009  0.48703095  0.73262113    -0.14720
F1221       F  0.83201958  0.58006132  0.78133690    -0.14720
F1222       F  0.78003287  0.58191410  0.81026368    -0.12360
C1223       C  0.65038347  0.64292026  0.88675202     0.25650
C1224       C  0.65829542  0.61919180  0.89766255    -0.22460
C1225       C  0.65317993  0.60898311  0.93597787     0.20560
C1226       C  0.63578493  0.61772826  0.96060059     0.25590
C1227       C  0.62297863  0.63682303  0.94751878    -0.22400
C1228       C  0.63261999  0.65137065  0.91129466     0.20490
F1229       F  0.62192115  0.67083156  0.89798631    -0.12360
F1230       F  0.65660593  0.65511426  0.85065581    -0.14720
F1231       F  0.62912266  0.60512777  0.99651577    -0.14720
F1232       F  0.66126757  0.58716424  0.94841405    -0.12360
C1233       C  0.60741537  0.58392870  0.62027657     0.25650
C1234       C  0.60384784  0.61142571  0.62628372    -0.22460
C1235       C  0.61900426  0.63191393  0.65858252     0.20560
C1236       C  0.63414637  0.62309432  0.68607541     0.25590
C1237       C  0.63480593  0.59389899  0.68164572    -0.22400
C1238       C  0.62275250  0.57535578  0.64764581     0.20490
F1239       F  0.62265169  0.54683616  0.64258250    -0.12360
F1240       F  0.59438992  0.56393827  0.58899254    -0.14720
F1241       F  0.64654492  0.64207876  0.71818407    -0.14720
F1242       F  0.61763591  0.65947066  0.66487044    -0.12360
C1243       C  0.50499182  0.46629593  0.84340408     0.25650
C1244       C  0.52876728  0.50049798  0.84086344    -0.22460
C1245       C  0.51919938  0.52363275  0.83632310     0.20560
C1246       C  0.48680614  0.51238620  0.82856783     0.25590
C1247       C  0.46390425  0.47824094  0.82734443    -0.22400
C1248       C  0.47251514  0.45525700  0.83643046     0.20490
F1249       F  0.44989899  0.42211849  0.83571879    -0.12360
F1250       F  0.51335454  0.44329061  0.84825397    -0.14720
F1251       F  0.47818680  0.53459398  0.81963080    -0.14720
F1252       F  0.54156037  0.55687493  0.83578921    -0.12360
C1253       C  0.56910039  0.40842822  0.88774577     0.25650
C1254       C  0.59461199  0.44045874  0.90013561    -0.22460
C1255       C  0.59371920  0.44964669  0.93828337     0.20560
C1256       C  0.56704917  0.42893652  0.96207351     0.25590
C1257       C  0.54015764  0.39832138  0.94850619    -0.22400
C1258       C  0.54232025  0.38780522  0.91152620     0.20490
F1259       F  0.51747041  0.35849482  0.89723022    -0.12360
F1260       F  0.56882570  0.39760999  0.85159793    -0.14720
F1261       F  0.56716280  0.43959322  0.99827311    -0.14720
F1262       F  0.61776400  0.47959773  0.95219101    -0.12360
C1263       C  0.55342687  0.41884766  0.63398473     0.25650
C1264       C  0.52084564  0.39558533  0.64407074    -0.22460
C1265       C  0.51199378  0.39123696  0.68276737     0.20560
C1266       C  0.53477357  0.41149686  0.71074686     0.25590
C1267       C  0.56705848  0.43644188  0.70051764    -0.22400
C1268       C  0.57638806  0.43891831  0.66189266     0.20490
F1269       F  0.60729624  0.46179482  0.65065818    -0.12360
F1270       F  0.56284886  0.42272009  0.59680111    -0.14720
F1271       F  0.52463866  0.40743842  0.74766704    -0.14720
F1272       F  0.48064446  0.36906362  0.69329236    -0.12360
loop_ 
_geom_bond_atom_site_label_1 
_geom_bond_atom_site_label_2 
_geom_bond_distance 
_geom_bond_site_symmetry_2 
_ccdc_geom_bond_type 
Zn1           O5   1.912       .  S
Zn1           O6   2.048       .  S
Zn1          O10   1.965       .  S
Zn1          O17   2.042       .  S
Zn2           O5   1.900       .  S
Zn2           O7   1.966       .  S
Zn2           O9   1.971       .  S
Zn2          O13   1.948       .  S
Zn3           O5   1.951       .  S
Zn3           O8   2.125       .  S
Zn3          O11   2.131       .  S
Zn3          O14   2.126       .  S
Zn4           O5   1.892       .  S
Zn4          O12   1.950       .  S
Zn4          O15   1.949       .  S
Zn4          O16   1.975       .  S
O6           C18   1.275       .  A
O7           C19   1.262       .  A
O8           C20   1.294       .  A
O9           C18   1.266       .  A
O10          C20   1.277       .  A
O11          C19   1.283       .  A
O12          C21   1.266       .  A
O13          C22   1.265       .  A
O14          C21   1.289       .  A
O15          C22   1.269       .  A
O16          C23   1.267       .  A
O17          C23   1.276       .  A
C18         C631   1.488       .  S
C19         C618   1.509       .  S
C20         C578   1.483       .  S
C21         C588   1.499       .  S
C22         C608   1.449       .  S
C23         C601   1.477       .  S
Zn24         O28   1.953       .  S
Zn24         O29   1.982       .  S
Zn24         O33   1.972       .  S
Zn24        O676   1.992   1_554  S
Zn25         O28   1.906       .  S
Zn25         O30   2.039       .  S
Zn25         O32   2.050       .  S
Zn25         O36   1.998       .  S
Zn26         O28   1.888       .  S
Zn26         O31   1.976       .  S
Zn26         O34   1.996       .  S
Zn26        O673   1.978   1_554  S
Zn27         O28   1.917   1_556  S
Zn27         O38   2.089   1_556  S
Zn27        O671   2.117       .  S
Zn27        O675   2.088       .  S
O29          C41   1.269       .  A
O30          C42   1.278       .  A
O31          C43   1.272       .  A
O32          C41   1.277       .  A
O33          C43   1.266       .  A
O34          C42   1.271       .  A
O35        Zn663   2.117       .  S
O35          C44   1.287       .  A
O36          C45   1.278       .  A
O37        Zn662   1.978       .  S
O37          C44   1.271       .  A
O38          C45   1.290       .  A
O39        Zn663   2.088       .  S
O39          C46   1.282       .  A
O40        Zn660   1.992       .  S
O40          C46   1.267       .  A
C41         C571   1.478       .  S
C42         C598   1.491       .  S
C43         C551   1.441       .  S
C44         C591   1.498       .  S
C45         C538   1.481       .  S
C46         C558   1.493       .  S
Zn47         O51   1.949       .  S
Zn47         O56   1.993       .  S
Zn47         O63   2.001       .  S
Zn47        O688   1.975       .  S
Zn48        O687   1.959   1_554  S
Zn48         O53   2.118       .  S
Zn48         O55   2.116       .  S
Zn48        O695   2.120   1_554  S
Zn49         O51   1.901       .  S
Zn49         O54   1.966       .  S
Zn49         O60   1.999       .  S
Zn49        O693   1.966       .  S
Zn50         O51   1.901       .  S
Zn50         O58   1.999       .  S
Zn50         O61   1.942       .  S
Zn50         O62   2.003       .  S
O51        Zn684   1.959       .  S
O52        Zn683   1.975   1_554  S
O52          C64   1.268       .  A
O53          C65   1.285       .  A
O54          C66   1.272       .  A
O55          C64   1.285       .  A
O56          C66   1.269       .  A
O57        Zn685   1.966   1_554  S
O57          C65   1.267       .  A
O58          C67   1.271       .  A
O59        Zn684   2.120       .  S
O59          C68   1.291       .  A
O60          C67   1.272       .  A
O61          C68   1.268       .  A
O62          C69   1.271       .  A
O63          C69   1.270       .  A
C64         C488   1.507       .  S
C65         C518   1.496       .  S
C66         C511   1.458   1_455  S
C67         C528   1.476       .  S
C68         C481   1.472       .  S
C69         C501   1.485       .  S
Zn70         O74   1.939       .  S
Zn70         O75   2.069       .  S
Zn70         O79   2.069       .  S
Zn70         O86   2.034       .  S
Zn71         O74   1.918       .  S
Zn71         O76   2.027       .  S
Zn71         O78   1.999       .  S
Zn71         O82   2.010       .  S
Zn72         O74   1.962       .  S
Zn72         O77   2.026       .  S
Zn72         O80   2.032       .  S
Zn72         O83   1.984       .  S
Zn73         O74   1.903       .  S
Zn73         O81   1.942       .  S
Zn73         O84   1.969       .  S
Zn73         O85   1.985       .  S
O75          C87   1.284       .  A
O76          C88   1.274       .  A
O77          C89   1.277       .  A
O78          C87   1.279       .  A
O79          C89   1.281       .  A
O80          C88   1.278       .  A
O81          C90   1.265       .  A
O82          C91   1.269       .  A
O83          C90   1.264       .  A
O84          C91   1.267       .  A
O85          C92   1.270       .  A
O86          C92   1.274       .  A
C87         C581   1.486       .  S
C88         C448   1.490       .  S
C89         C491   1.487       .  S
C90         C468   1.439       .  S
C91         C458   1.461       .  S
C92         C498   1.471       .  S
Zn93         O97   1.920       .  S
Zn93         O98   1.994       .  S
Zn93        O102   1.974       .  S
Zn93        O109   1.958       .  S
Zn94         O97   1.884       .  S
Zn94         O99   1.980       .  S
Zn94        O101   1.949       .  S
Zn94        O105   1.949       .  S
Zn95         O97   1.922       .  S
Zn95        O100   2.036       .  S
Zn95        O103   2.033       .  S
Zn95        O106   1.955       .  S
Zn96         O97   1.972       .  S
Zn96        O104   2.128       .  S
Zn96        O107   2.141       .  S
Zn96        O108   2.148       .  S
O98         C110   1.271       .  A
O99         C111   1.270       .  A
O100        C112   1.274       .  A
O101        C110   1.270       .  A
O102        C112   1.267       .  A
O103        C111   1.275       .  A
O104        C113   1.295       .  A
O105        C114   1.265       .  A
O106        C113   1.271       .  A
O107        C114   1.287       .  A
O108        C115   1.284       .  A
O109        C115   1.261       .  A
C110        C421   1.458   1_545  S
C111        C438   1.483       .  S
C112        C408   1.486       .  S
C113        C388   1.475       .  S
C114        C431   1.499       .  S
C115        C398   1.508       .  S
Zn116       O120   1.953       .  S
Zn116       O121   2.015       .  S
Zn116       O125   1.969       .  S
Zn116       O132   2.021       .  S
Zn117       O120   1.935       .  S
Zn117       O122   2.048       .  S
Zn117       O124   2.085       .  S
Zn117       O128   2.041       .  S
Zn118       O120   1.899       .  S
Zn118       O123   1.928       .  S
Zn118       O126   1.975       .  S
Zn118       O129   1.971       .  S
Zn119       O120   1.939       .  S
Zn119       O127   2.034       .  S
Zn119       O130   2.051       .  S
Zn119       O131   2.062       .  S
O121        C133   1.275       .  A
O122        C134   1.274       .  A
O123        C135   1.264       .  A
O124        C133   1.282       .  A
O125        C135   1.265       .  A
O126        C134   1.267       .  A
O127        C136   1.272       .  A
O128        C137   1.284       .  A
O129        C136   1.266       .  A
O130        C137   1.285       .  A
O131        C138   1.277       .  A
O132        C138   1.277       .  A
C133        C361   1.489       .  S
C134        C368   1.469       .  S
C135        C378   1.444       .  S
C136        C411   1.462       .  S
C137        C541   1.483       .  S
C138        C401   1.498       .  S
Zn139       O143   1.933       .  S
Zn139       O144   2.016       .  S
Zn139       O148   2.024       .  S
Zn139       O155   2.056       .  S
Zn140       O143   1.949       .  S
Zn140       O145   2.051       .  S
Zn140       O147   2.058       .  S
Zn140       O151   2.100       .  S
Zn141       O143   1.913       .  S
Zn141       O146   1.971       .  S
Zn141       O149   1.980       .  S
Zn141       O152   1.948       .  S
Zn142       O143   1.943       .  S
Zn142       O150   1.952       .  S
Zn142       O153   2.007       .  S
Zn142       O154   2.027       .  S
O144        C156   1.282       .  A
O145        C157   1.274       .  A
O146        C158   1.266       .  A
O147        C156   1.286       .  A
O148        C158   1.269       .  A
O149        C157   1.268       .  A
O150        C159   1.263       .  A
O151        C160   1.283       .  A
O152        C159   1.267       .  A
O153        C160   1.274       .  A
O154        C161   1.277       .  A
O155        C161   1.276       .  A
C156        C331   1.481       .  S
C157        C348   1.467       .  S
C158        C441   1.460       .  S
C159        C381   1.439       .  S
C160        C338   1.492       .  S
C161        C428   1.496       .  S
Zn162       O166   1.962       .  S
Zn162       O167   2.130       .  S
Zn162       O171   2.119       .  S
Zn162       O178   2.122       .  S
Zn163       O166   1.922       .  S
Zn163       O168   2.027       .  S
Zn163       O170   1.941       .  S
Zn163       O174   2.017       .  S
Zn164       O166   1.941       .  S
Zn164       O169   1.978       .  S
Zn164       O172   1.986       .  S
Zn164       O175   1.973       .  S
Zn165       O166   1.913       .  S
Zn165       O173   1.974       .  S
Zn165       O176   2.018       .  S
Zn165       O177   1.977       .  S
O167        C179   1.293       .  A
O168        C180   1.273       .  A
O169        C181   1.265       .  A
O170        C179   1.269       .  A
O171        C181   1.282       .  A
O172        C180   1.268       .  A
O173        C182   1.273       .  A
O174        C183   1.273       .  A
O175        C182   1.268       .  A
O176        C183   1.274       .  A
O177        C184   1.268       .  A
O178        C184   1.287       .  A
C179        C478   1.473       .  S
C180        C371   1.484       .  S
C181        C358   1.508       .  S
C182        C418   1.463       .  S
C183        C351   1.488       .  S
C184        C341   1.490       .  S
Zn185       O189   1.937       .  S
Zn185       O190   1.983       .  S
Zn185       O194   1.959       .  S
Zn185       O201   2.004       .  S
Zn186       O189   1.961       .  S
Zn186       O191   2.088       .  S
Zn186       O193   2.039       .  S
Zn186       O197   2.049       .  S
Zn187       O189   1.936       .  S
Zn187       O192   1.923       .  S
Zn187       O195   1.983       .  S
Zn187       O198   2.008       .  S
Zn188       O189   1.943       .  S
Zn188       O196   2.069       .  S
Zn188       O199   2.021       .  S
Zn188       O200   2.027       .  S
O190        C202   1.269       .  A
O191        C203   1.280       .  A
O192        C204   1.259       .  A
O193        C202   1.272       .  A
O194        C204   1.266       .  A
O195        C203   1.269       .  A
O196        C205   1.276       .  A
O197        C206   1.285       .  A
O198        C205   1.273       .  A
O199        C206   1.282       .  A
O200        C207   1.271       .  A
O201        C207   1.270       .  A
C202        C318   1.466       .  S
C203        C308   1.486       .  S
C204        C611   1.426       .  S
C205        C561   1.491       .  S
C206        C298   1.478       .  S
C207        C568   1.472       .  S
Zn208       O212   1.935       .  S
Zn208       O213   2.032       .  S
Zn208       O217   1.970       .  S
Zn208       O224   2.032       .  S
Zn209       O212   1.909       .  S
Zn209       O216   1.990       .  S
Zn209       O220   1.961       .  S
Zn209       O850   1.991   1_554  S
Zn210       O212   1.956   1_556  S
Zn210       O215   2.099   1_556  S
Zn210       O854   2.119       .  S
Zn210       O857   2.114       .  S
Zn211       O212   1.953       .  S
Zn211       O222   1.980       .  S
Zn211       O223   1.984       .  S
Zn211       O855   1.975   1_554  S
O213        C225   1.274       .  A
O214       Zn845   1.991       .  S
O214        C226   1.269       .  A
O215        C227   1.290       .  A
O216        C225   1.269       .  A
O217        C227   1.274       .  A
O218       Zn846   2.119       .  S
O218        C226   1.286       .  A
O219       Zn847   1.975       .  S
O219        C228   1.266       .  A
O220        C229   1.271       .  A
O221       Zn846   2.114       .  S
O221        C228   1.284       .  A
O222        C229   1.267       .  A
O223        C230   1.267       .  A
O224        C230   1.273       .  A
C225        C628   1.475       .  S
C226        C621   1.507       .  S
C227        C328   1.478       .  S
C228        C311   1.504       .  S
C229        C548   1.440       .  S
C230        C321   1.489       .  S
Zn231       O235   1.943       .  S
Zn231       O236   2.087       .  S
Zn231       O240   2.112       .  S
Zn231       O247   2.089       .  S
Zn232       O235   1.922       .  S
Zn232       O237   2.030       .  S
Zn232       O239   1.976       .  S
Zn232       O243   2.021       .  S
Zn233       O235   1.894       .  S
Zn233       O238   1.961       .  S
Zn233       O241   1.964       .  S
Zn233       O244   1.950       .  S
Zn234       O235   1.945       .  S
Zn234       O242   1.991       .  S
Zn234       O245   1.982       .  S
Zn234       O246   1.982       .  S
O236        C248   1.289       .  A
O237        C249   1.274       .  A
O238        C250   1.265       .  A
O239        C248   1.275       .  A
O240        C250   1.285       .  A
O241        C249   1.269       .  A
O242        C251   1.269       .  A
O243        C252   1.273       .  A
O244        C251   1.268       .  A
O245        C252   1.270       .  A
O246        C253   1.267       .  A
O247        C253   1.284       .  A
C248        C301   1.477       .  S
C249        C531   1.468       .  S
C250        C521   1.499       .  S
C251        C471   1.459   1_455  S
C252        C291   1.478       .  S
C253        C278   1.496       .  S
Zn254       O258   1.937       .  S
Zn254       O259   2.000       .  S
Zn254       O270   1.981       .  S
Zn254       O899   1.968       .  S
Zn255       O258   1.865       .  S
Zn255       O262   1.961       .  S
Zn255       O266   2.011       .  S
Zn255       O896   1.923       .  S
Zn256       O894   1.955   1_554  S
Zn256       O261   2.105       .  S
Zn256       O264   2.163       .  S
Zn256       O903   2.144   1_554  S
Zn257       O258   1.878       .  S
Zn257       O265   1.921       .  S
Zn257       O268   1.997       .  S
Zn257       O269   2.000       .  S
O258       Zn892   1.955       .  S
O259        C271   1.269       .  A
O260       Zn891   1.923   1_554  S
O260        C272   1.264       .  A
O261        C273   1.283       .  A
O262        C271   1.272       .  A
O263       Zn890   1.968   1_554  S
O263        C273   1.266       .  A
O264        C272   1.291       .  A
O265        C274   1.267       .  A
O266        C275   1.273       .  A
O267       Zn892   2.143       .  S
O267        C274   1.294       .  A
O268        C275   1.271       .  A
O269        C276   1.273       .  A
O270        C276   1.269       .  A
C271        C508   1.454       .  S
C272        C281   1.507       .  S
C273        C451   1.500       .  S
C274        C391   1.478       .  S
C275        C288   1.478       .  S
C276        C461   1.477       .  S
C277        C278   1.402       .  A
C277        C282   1.392   1_455  A
C277        F284   1.359       .  S
C278        C279   1.417   1_455  A
C279        C280   1.419       .  A
C279        F286   1.357       .  S
C280        C281   1.409       .  A
C280        F285   1.357       .  S
C281        C282   1.420       .  A
C282        F283   1.359       .  S
C287        C288   1.408       .  A
C287        C292   1.396       .  A
C287        F294   1.358       .  S
C288        C289   1.407   1_655  A
C289        C290   1.397       .  A
C289        F296   1.358       .  S
C290        C291   1.408       .  A
C290        F295   1.358       .  S
C291        C292   1.408   1_455  A
C292        F293   1.358       .  S
C297        C298   1.403       .  A
C297        C302   1.401       .  A
C297        F304   1.358       .  S
C298        C299   1.410       .  A
C299        C300   1.399       .  A
C299        F306   1.358       .  S
C300        C301   1.402       .  A
C300        F305   1.358       .  S
C301        C302   1.411       .  A
C302        F303   1.358       .  S
C307        C308   1.400       .  A
C307        C312   1.410       .  A
C307        F314   1.357       .  S
C308        C309   1.409       .  A
C309        C310   1.403       .  A
C309        F316   1.358       .  S
C310        C311   1.408       .  A
C310        F315   1.358       .  S
C311        C312   1.421       .  A
C312        F313   1.358       .  S
C317        C318   1.399       .  A
C317        C322   1.400       .  A
C317        F324   1.358       .  S
C318        C319   1.403       .  A
C319        C320   1.398       .  A
C319        F326   1.358       .  S
C320        C321   1.409       .  A
C320        F325   1.358       .  S
C321        C322   1.416       .  A
C322        F323   1.358       .  S
C327        C328   1.401       .  A
C327        C332   1.399       .  A
C327        F334   1.358       .  S
C328        C329   1.413       .  A
C329        C330   1.402       .  A
C329        F336   1.358       .  S
C330        C331   1.403       .  A
C330        F335   1.358       .  S
C331        C332   1.412       .  A
C332        F333   1.358       .  S
C337        C338   1.409   1_565  A
C337        C342   1.403       .  A
C337        F344   1.359       .  S
C338        C339   1.406       .  A
C339        C340   1.415   1_545  A
C339        F346   1.357       .  S
C340        C341   1.413       .  A
C340        F345   1.357       .  S
C341        C342   1.406       .  A
C342        F343   1.359       .  S
C347        C352   1.400   1_545  A
C347        C984   1.402       .  A
C347        F354   1.358       .  S
C348        C349   1.401   1_545  A
C348        C983   1.402   1_554  A
C349        C986   1.399       .  A
C349        F356   1.358       .  S
C350        C351   1.412       .  A
C350        C985   1.399       .  A
C350        F991   1.358       .  S
C351        C352   1.411       .  A
C352        F353   1.358   1_565  S
F355        C986   1.358       .  S
C357        C358   1.420       .  A
C357        C362   1.405       .  A
C357        F364   1.358       .  S
C358        C359   1.412       .  A
C359        C360   1.410       .  A
C359        F366   1.357       .  S
C360        C361   1.410       .  A
C360        F365   1.358       .  S
C361        C362   1.401       .  A
C362        F363   1.358       .  S
C367        C372   1.400       .  A
C367       C1004   1.402       .  A
C367        F374   1.358       .  S
C368        C369   1.404       .  A
C368       C1003   1.402   1_554  A
C369        C370   1.396       .  A
C369        F376   1.358       .  S
C370       C1007   1.408   1_554  A
C370        F375   1.358       .  S
C371        C372   1.413       .  A
C371       C1006   1.408       .  A
C372        F373   1.358       .  S
C377        C378   1.400       .  A
C377        C382   1.387   1_565  A
C377        F384   1.358       .  S
C378        C379   1.404   1_565  A
C379        C380   1.384       .  A
C379        F386   1.359       .  S
C380        C381   1.399       .  A
C380        F385   1.359       .  S
C381        C382   1.399       .  A
C382        F383   1.357       .  S
C387        C388   1.399       .  A
C387        C392   1.396       .  A
C387        F394   1.358       .  S
C388        C389   1.413       .  A
C389        C390   1.410       .  A
C389        F396   1.357       .  S
C390        C391   1.403       .  A
C390        F395   1.357       .  S
C391        C392   1.411       .  A
C392        F393   1.359       .  S
C397        C398   1.421   1_565  A
C397        C402   1.403       .  A
C397        F404   1.358       .  S
C398        C399   1.408       .  A
C399        C400   1.413   1_545  A
C399        F406   1.357       .  S
C400        C401   1.416       .  A
C400        F405   1.358       .  S
C401        C402   1.402       .  A
C402        F403   1.358       .  S
C407        C408   1.409       .  A
C407       C1048   1.397   1_545  A
C407        F414   1.358       .  S
C408        C409   1.416   1_545  A
C409        C410   1.398       .  A
C409        F416   1.358       .  S
C410       C1047   1.398       .  A
C410        F415   1.358       .  S
C411        C412   1.403       .  A
C411       C1046   1.398   1_554  A
C412       C1043   1.397   1_565  A
C412        F413   1.359       .  S
C417        C418   1.408       .  A
C417        C422   1.393       .  A
C417        F424   1.358       .  S
C418        C419   1.404       .  A
C419        C420   1.385       .  A
C419        F426   1.359       .  S
C420        C421   1.404       .  A
C420        F425   1.359   1_565  S
C421        C422   1.402       .  A
C422        F423   1.358       .  S
C427        C428   1.416       .  A
C427        C432   1.411       .  A
C427        F434   1.358       .  S
C428        C429   1.403       .  A
C429        C430   1.404       .  A
C429        F436   1.358       .  S
C430        C431   1.416       .  A
C430        F435   1.358       .  S
C431        C432   1.407       .  A
C432        F433   1.357       .  S
C437        C438   1.413       .  A
C437        C442   1.395       .  A
C437        F444   1.358       .  S
C438       C1075   1.409       .  A
C439        C440   1.399       .  A
C439       C1074   1.409   1_554  A
C439        F446   1.358       .  S
C440        C441   1.403       .  A
C440        F445   1.358       .  S
C441       C1078   1.398   1_554  A
C442       C1077   1.398       .  A
C442        F443   1.358       .  S
C447        C448   1.401       .  A
C447        C452   1.404       .  A
C447        F454   1.358       .  S
C448        C449   1.413       .  A
C449        C450   1.406       .  A
C449        F456   1.358       .  S
C450        C451   1.407       .  A
C450        F455   1.358       .  S
C451        C452   1.419       .  A
C452        F453   1.358       .  S
C457        C458   1.402       .  A
C457        C462   1.389       .  A
C457        F464   1.359       .  S
C458        C459   1.400       .  A
C459        C460   1.399       .  A
C459        F466   1.358       .  S
C460        C461   1.414       .  A
C460        F465   1.358       .  S
C461        C462   1.408       .  A
C462        F463   1.358       .  S
C467        C468   1.394       .  A
C467        C472   1.386   1_655  A
C467        F474   1.359       .  S
C468        C469   1.402       .  A
C469        C470   1.393       .  A
C469        F476   1.358       .  S
C470        C471   1.404       .  A
C470        F475   1.358       .  S
C471        C472   1.407   1_655  A
C472        F473   1.359       .  S
C477        C478   1.407       .  A
C477        C482   1.398       .  A
C477        F484   1.359       .  S
C478        C479   1.405       .  A
C479        C480   1.408       .  A
C479        F486   1.357       .  S
C480        C481   1.409       .  A
C480        F485   1.357       .  S
C481        C482   1.402       .  A
C482        F483   1.358       .  S
C487        C488   1.411       .  A
C487        C492   1.408   1_455  A
C487        F494   1.358       .  S
C488        C489   1.421   1_455  A
C489        C490   1.406       .  A
C489        F496   1.358       .  S
C490        C491   1.400       .  A
C490        F495   1.357       .  S
C491        C492   1.410       .  A
C492        F493   1.358       .  S
C497        C498   1.403       .  A
C497        C502   1.401       .  A
C497        F504   1.358       .  S
C498        C499   1.403   1_655  A
C499        C500   1.394       .  A
C499        F506   1.359       .  S
C500        C501   1.410       .  A
C500        F505   1.358       .  S
C501        C502   1.413   1_455  A
C502        F503   1.358       .  S
C507        C508   1.402       .  A
C507        C512   1.397       .  A
C507        F514   1.358       .  S
C508        C509   1.401       .  A
C509        C510   1.385       .  A
C509        F516   1.359       .  S
C510        C511   1.401       .  A
C510        F515   1.358   1_655  S
C511        C512   1.406       .  A
C512        F513   1.358       .  S
C517        C518   1.403       .  A
C517        C522   1.407       .  A
C517        F524   1.357       .  S
C518        C519   1.415       .  A
C519        C520   1.404       .  A
C519        F526   1.358       .  S
C520        C521   1.405       .  A
C520        F525   1.357       .  S
C521        C522   1.419       .  A
C522        F523   1.358       .  S
C527        C528   1.407       .  A
C527        C532   1.393       .  A
C527        F534   1.358       .  S
C528        C529   1.410       .  A
C529        C530   1.398       .  A
C529        F536   1.358       .  S
C530        C531   1.403       .  A
C530        F535   1.357       .  S
C531        C532   1.405       .  A
C532        F533   1.359       .  S
C537        C538   1.404       .  A
C537        C542   1.400       .  A
C537        F544   1.358       .  S
C538        C539   1.411       .  A
C539        C540   1.404       .  A
C539        F546   1.358       .  S
C540        C541   1.405       .  A
C540        F545   1.358       .  S
C541        C542   1.409       .  A
C542        F543   1.358       .  S
C547        C548   1.401   1_556  A
C547        C552   1.393       .  A
C547       F1190   1.358       .  S
C548        C549   1.399       .  A
C549        C550   1.384       .  A
C549        F556   1.359       .  S
C550        C551   1.399       .  A
C550        F555   1.359       .  S
C551        C552   1.400   1_554  A
C552       F1189   1.355       .  S
F553       C1188   1.355       .  S
F554       C1183   1.358       .  S
C557        C558   1.405       .  A
C557        C562   1.397       .  A
C557        F564   1.359       .  S
C558        C559   1.416       .  A
C559        C560   1.415       .  A
C559        F566   1.357       .  S
C560        C561   1.406       .  A
C560        F565   1.357       .  S
C561        C562   1.406       .  A
C562        F563   1.353       .  S
C567        C568   1.400       .  A
C567        C572   1.397       .  A
C567        F574   1.358       .  S
C568        C569   1.408       .  A
C569        C570   1.404       .  A
C569        F576   1.358       .  S
C570        C571   1.404       .  A
C570        F575   1.357       .  S
C571        C572   1.411       .  A
C572        F573   1.358       .  S
C577        C578   1.409       .  A
C577        C582   1.391       .  A
C577        F584   1.359       .  S
C578        C579   1.406       .  A
C579        C580   1.411       .  A
C579        F586   1.357       .  S
C580        C581   1.414       .  A
C580        F585   1.357       .  S
C581        C582   1.405       .  A
C582        F583   1.359       .  S
C587        C588   1.419       .  A
C587        C592   1.408       .  A
C587        F594   1.358       .  S
C588        C589   1.405       .  A
C589        C590   1.405       .  A
C589        F596   1.358       .  S
C590        C591   1.416       .  A
C590        F595   1.358       .  S
C591        C592   1.403       .  A
C592        F593   1.357       .  S
C597        C598   1.415       .  A
C597        C602   1.397       .  A
C597        F604   1.358       .  S
C598        C599   1.409       .  A
C599        C600   1.401       .  A
C599        F606   1.358       .  S
C600        C601   1.407       .  A
C600        F605   1.358       .  S
C601        C602   1.403       .  A
C602        F603   1.359       .  S
C607        C608   1.408       .  A
C607        C612   1.383       .  A
C607        F614   1.359       .  S
C608        C609   1.406       .  A
C609        C610   1.382       .  A
C609        F616   1.359       .  S
C610        C611   1.395       .  A
C610        F615   1.358       .  S
C611        C612   1.394       .  A
C612        F613   1.357       .  S
C617        C618   1.421       .  A
C617        C622   1.409       .  A
C617        F624   1.358       .  S
C618        C619   1.408       .  A
C619        C620   1.408       .  A
C619        F626   1.358       .  S
C620        C621   1.418       .  A
C620        F625   1.358       .  S
C621        C622   1.406       .  A
C622        F623   1.358       .  S
C627        C628   1.406       .  A
C627        C632   1.398       .  A
C627        F634   1.358       .  S
C628        C629   1.402       .  A
C629        C630   1.399       .  A
C629        F636   1.358       .  S
C630        C631   1.415       .  A
C630        F635   1.358       .  S
C631        C632   1.409       .  A
C632        F633   1.358       .  S
Zn637       O641   1.912       .  S
Zn637       O642   2.048       .  S
Zn637       O646   1.965       .  S
Zn637       O653   2.042       .  S
Zn638       O641   1.900       .  S
Zn638       O643   1.966       .  S
Zn638       O645   1.971       .  S
Zn638       O649   1.948       .  S
Zn639       O641   1.951       .  S
Zn639       O644   2.125       .  S
Zn639       O647   2.131       .  S
Zn639       O650   2.126       .  S
Zn640       O641   1.892       .  S
Zn640       O648   1.950       .  S
Zn640       O651   1.949       .  S
Zn640       O652   1.975       .  S
O642        C654   1.275       .  A
O643        C655   1.262       .  A
O644        C656   1.294       .  A
O645        C654   1.266       .  A
O646        C656   1.277       .  A
O647        C655   1.283       .  A
O648        C657   1.266       .  A
O649        C658   1.265       .  A
O650        C657   1.289       .  A
O651        C658   1.269       .  A
O652        C659   1.267       .  A
O653        C659   1.276       .  A
C654       C1267   1.488       .  S
C655       C1254   1.509       .  S
C656       C1214   1.483       .  S
C657       C1224   1.499       .  S
C658       C1244   1.449       .  S
C659       C1237   1.477       .  S
Zn660       O664   1.953       .  S
Zn660       O665   1.982       .  S
Zn660       O669   1.972       .  S
Zn661       O664   1.906       .  S
Zn661       O666   2.039       .  S
Zn661       O668   2.050       .  S
Zn661       O672   1.998       .  S
Zn662       O664   1.888       .  S
Zn662       O667   1.976       .  S
Zn662       O670   1.996       .  S
Zn663       O664   1.917       .  S
Zn663       O674   2.089       .  S
O665        C677   1.269       .  A
O666        C678   1.278       .  A
O667        C679   1.272       .  A
O668        C677   1.277       .  A
O669        C679   1.266       .  A
O670        C678   1.271       .  A
O671        C680   1.287       .  A
O672        C681   1.278       .  A
O673        C680   1.271       .  A
O674        C681   1.290       .  A
O675        C682   1.282       .  A
O676        C682   1.267       .  A
C677       C1207   1.478       .  S
C678       C1234   1.491       .  S
C679       C1187   1.441       .  S
C680       C1227   1.498       .  S
C681       C1174   1.481       .  S
C682       C1194   1.493       .  S
Zn683       O687   1.949       .  S
Zn683       O692   1.993   1_556  S
Zn683       O699   2.001       .  S
Zn684       O689   2.118       .  S
Zn684       O691   2.116       .  S
Zn685       O687   1.901       .  S
Zn685       O690   1.966       .  S
Zn685       O696   1.999       .  S
Zn686       O687   1.901       .  S
Zn686       O694   1.999       .  S
Zn686       O697   1.942       .  S
Zn686       O698   2.003       .  S
O688        C700   1.268       .  A
O689        C701   1.285       .  A
O690        C702   1.272   1_556  A
O691        C700   1.285       .  A
O692        C702   1.269       .  A
O693        C701   1.267       .  A
O694        C703   1.271       .  A
O695        C704   1.291       .  A
O696        C703   1.272       .  A
O697        C704   1.268       .  A
O698        C705   1.271       .  A
O699        C705   1.270       .  A
C700       C1124   1.507       .  S
C701       C1154   1.496       .  S
C702       C1147   1.458   1_455  S
C703       C1164   1.476       .  S
C704       C1117   1.472       .  S
C705       C1137   1.485       .  S
Zn706       O710   1.939       .  S
Zn706       O711   2.069       .  S
Zn706       O715   2.069       .  S
Zn706       O722   2.033       .  S
Zn707       O710   1.918       .  S
Zn707       O712   2.027       .  S
Zn707       O714   1.999       .  S
Zn707       O718   2.010       .  S
Zn708       O710   1.962       .  S
Zn708       O713   2.026       .  S
Zn708       O716   2.032       .  S
Zn708       O719   1.984       .  S
Zn709       O710   1.903       .  S
Zn709       O717   1.942       .  S
Zn709       O720   1.969       .  S
Zn709       O721   1.985       .  S
O711        C723   1.284       .  A
O712        C724   1.274       .  A
O713        C725   1.277       .  A
O714        C723   1.279       .  A
O715        C725   1.281       .  A
O716        C724   1.278       .  A
O717        C726   1.265       .  A
O718        C727   1.269       .  A
O719        C726   1.264       .  A
O720        C727   1.267       .  A
O721        C728   1.270       .  A
O722        C728   1.274       .  A
C723       C1217   1.486       .  S
C724       C1084   1.490       .  S
C725       C1127   1.487       .  S
C726       C1104   1.439       .  S
C727       C1094   1.461       .  S
C728       C1134   1.471       .  S
Zn729       O733   1.920       .  S
Zn729       O734   1.994       .  S
Zn729       O738   1.974       .  S
Zn729       O745   1.958       .  S
Zn730       O733   1.884       .  S
Zn730       O735   1.979       .  S
Zn730       O737   1.949       .  S
Zn730       O741   1.949       .  S
Zn731       O733   1.922       .  S
Zn731       O736   2.036       .  S
Zn731       O739   2.033       .  S
Zn731       O742   1.955       .  S
Zn732       O733   1.972       .  S
Zn732       O740   2.128       .  S
Zn732       O743   2.141       .  S
Zn732       O744   2.148       .  S
O734        C746   1.270       .  A
O735        C747   1.270       .  A
O736        C748   1.274       .  A
O737        C746   1.270       .  A
O738        C748   1.267       .  A
O739        C747   1.275       .  A
O740        C749   1.295       .  A
O741        C750   1.265       .  A
O742        C749   1.271       .  A
O743        C750   1.287       .  A
O744        C751   1.284       .  A
O745        C751   1.261       .  A
C746       C1057   1.458   1_545  S
C747       C1074   1.483       .  S
C748       C1044   1.486       .  S
C749       C1024   1.475       .  S
C750       C1067   1.499       .  S
C751       C1034   1.508       .  S
Zn752       O756   1.953       .  S
Zn752       O757   2.015       .  S
Zn752       O761   1.969       .  S
Zn752       O768   2.021       .  S
Zn753       O756   1.935       .  S
Zn753       O758   2.047       .  S
Zn753       O760   2.086       .  S
Zn753       O764   2.041       .  S
Zn754       O756   1.899       .  S
Zn754       O759   1.928       .  S
Zn754       O762   1.975       .  S
Zn754       O765   1.971       .  S
Zn755       O756   1.939       .  S
Zn755       O763   2.034       .  S
Zn755       O766   2.051       .  S
Zn755       O767   2.061       .  S
O757        C769   1.275       .  A
O758        C770   1.274       .  A
O759        C771   1.264       .  A
O760        C769   1.282       .  A
O761        C771   1.265       .  A
O762        C770   1.267       .  A
O763        C772   1.272       .  A
O764        C773   1.284       .  A
O765        C772   1.266       .  A
O766        C773   1.285       .  A
O767        C774   1.277       .  A
O768        C774   1.277       .  A
C769        C997   1.489       .  S
C770       C1004   1.469       .  S
C771       C1014   1.444       .  S
C772       C1047   1.462       .  S
C773       C1177   1.483       .  S
C774       C1037   1.498       .  S
Zn775       O779   1.933       .  S
Zn775       O780   2.016       .  S
Zn775       O784   2.024       .  S
Zn775       O791   2.056       .  S
Zn776       O779   1.949       .  S
Zn776       O781   2.051       .  S
Zn776       O783   2.058       .  S
Zn776       O787   2.101       .  S
Zn777       O779   1.913       .  S
Zn777       O782   1.971       .  S
Zn777       O785   1.980       .  S
Zn777       O788   1.948       .  S
Zn778       O779   1.944       .  S
Zn778       O786   1.952       .  S
Zn778       O789   2.008       .  S
Zn778       O790   2.027       .  S
O780        C792   1.282       .  A
O781        C793   1.274       .  A
O782        C794   1.266       .  A
O783        C792   1.286       .  A
O784        C794   1.269       .  A
O785        C793   1.268       .  A
O786        C795   1.263       .  A
O787        C796   1.283       .  A
O788        C795   1.267       .  A
O789        C796   1.274       .  A
O790        C797   1.277       .  A
O791        C797   1.276       .  A
C792        C967   1.481       .  S
C793        C984   1.467       .  S
C794       C1077   1.460       .  S
C795       C1017   1.439       .  S
C796        C974   1.492       .  S
C797       C1064   1.496       .  S
Zn798       O802   1.962       .  S
Zn798       O803   2.130       .  S
Zn798       O807   2.119       .  S
Zn798       O814   2.122       .  S
Zn799       O802   1.922       .  S
Zn799       O804   2.027       .  S
Zn799       O806   1.940       .  S
Zn799       O810   2.017       .  S
Zn800       O802   1.941       .  S
Zn800       O805   1.978       .  S
Zn800       O808   1.986       .  S
Zn800       O811   1.973       .  S
Zn801       O802   1.913       .  S
Zn801       O809   1.973       .  S
Zn801       O812   2.018       .  S
Zn801       O813   1.977       .  S
O803        C815   1.293       .  A
O804        C816   1.273       .  A
O805        C817   1.265       .  A
O806        C815   1.269       .  A
O807        C817   1.282       .  A
O808        C816   1.268       .  A
O809        C818   1.272       .  A
O810        C819   1.273       .  A
O811        C818   1.268       .  A
O812        C819   1.274       .  A
O813        C820   1.268       .  A
O814        C820   1.287       .  A
C815       C1114   1.473       .  S
C816       C1007   1.484       .  S
C817        C994   1.508       .  S
C818       C1054   1.463       .  S
C819        C987   1.488       .  S
C820        C977   1.490       .  S
Zn821       O825   1.937       .  S
Zn821       O826   1.983       .  S
Zn821       O830   1.959       .  S
Zn821       O837   2.004       .  S
Zn822       O825   1.961       .  S
Zn822       O827   2.088       .  S
Zn822       O829   2.039       .  S
Zn822       O833   2.049       .  S
Zn823       O825   1.936       .  S
Zn823       O828   1.923       .  S
Zn823       O831   1.983       .  S
Zn823       O834   2.008       .  S
Zn824       O825   1.943       .  S
Zn824       O832   2.069       .  S
Zn824       O835   2.021       .  S
Zn824       O836   2.027       .  S
O826        C838   1.269       .  A
O827        C839   1.280       .  A
O828        C840   1.259       .  A
O829        C838   1.272       .  A
O830        C840   1.266       .  A
O831        C839   1.269       .  A
O832        C841   1.276       .  A
O833        C842   1.285       .  A
O834        C841   1.273       .  A
O835        C842   1.282       .  A
O836        C843   1.271       .  A
O837        C843   1.270       .  A
C838        C954   1.466       .  S
C839        C944   1.486       .  S
C840       C1247   1.426       .  S
C841       C1197   1.491       .  S
C842        C934   1.478       .  S
C843       C1204   1.472       .  S
Zn844       O848   1.935       .  S
Zn844       O849   2.032       .  S
Zn844       O853   1.970       .  S
Zn844       O860   2.032       .  S
Zn845       O848   1.909       .  S
Zn845       O852   1.990       .  S
Zn845       O856   1.961       .  S
Zn846       O848   1.956       .  S
Zn846       O851   2.099       .  S
Zn847       O848   1.953       .  S
Zn847       O858   1.980       .  S
Zn847       O859   1.984       .  S
O849        C861   1.274       .  A
O850        C862   1.269       .  A
O851        C863   1.290       .  A
O852        C861   1.269       .  A
O853        C863   1.274       .  A
O854        C862   1.286       .  A
O855        C864   1.266       .  A
O856        C865   1.271       .  A
O857        C864   1.284       .  A
O858        C865   1.267       .  A
O859        C866   1.267       .  A
O860        C866   1.273       .  A
C861       C1264   1.475       .  S
C862       C1257   1.507       .  S
C863        C964   1.478       .  S
C864        C947   1.504       .  S
C865       C1184   1.440       .  S
C866        C957   1.489       .  S
Zn867       O871   1.943       .  S
Zn867       O872   2.087       .  S
Zn867       O876   2.112       .  S
Zn867       O883   2.089       .  S
Zn868       O871   1.922       .  S
Zn868       O873   2.030       .  S
Zn868       O875   1.976       .  S
Zn868       O879   2.021       .  S
Zn869       O871   1.894       .  S
Zn869       O874   1.961       .  S
Zn869       O877   1.964       .  S
Zn869       O880   1.950       .  S
Zn870       O871   1.945       .  S
Zn870       O878   1.991       .  S
Zn870       O881   1.982       .  S
Zn870       O882   1.982       .  S
O872        C884   1.289       .  A
O873        C885   1.274       .  A
O874        C886   1.265       .  A
O875        C884   1.275       .  A
O876        C886   1.285       .  A
O877        C885   1.269       .  A
O878        C887   1.269       .  A
O879        C888   1.273       .  A
O880        C887   1.268       .  A
O881        C888   1.270       .  A
O882        C889   1.267       .  A
O883        C889   1.284       .  A
C884        C937   1.477       .  S
C885       C1167   1.468       .  S
C886       C1157   1.499       .  S
C887       C1107   1.459   1_455  S
C888        C927   1.478       .  S
C889        C914   1.496       .  S
Zn890       O894   1.937       .  S
Zn890       O895   2.000   1_556  S
Zn890       O906   1.981       .  S
Zn891       O894   1.865       .  S
Zn891       O898   1.961       .  S
Zn891       O902   2.011       .  S
Zn892       O897   2.105       .  S
Zn892       O900   2.163       .  S
Zn893       O894   1.878       .  S
Zn893       O901   1.921       .  S
Zn893       O904   1.997       .  S
Zn893       O905   2.000       .  S
O895        C907   1.269       .  A
O896        C908   1.264       .  A
O897        C909   1.283       .  A
O898        C907   1.272   1_556  A
O899        C909   1.266       .  A
O900        C908   1.291       .  A
O901        C910   1.267       .  A
O902        C911   1.273       .  A
O903        C910   1.294       .  A
O904        C911   1.271       .  A
O905        C912   1.273       .  A
O906        C912   1.269       .  A
C907       C1144   1.454       .  S
C908        C917   1.507       .  S
C909       C1087   1.500       .  S
C910       C1027   1.478       .  S
C911        C924   1.478       .  S
C912       C1097   1.477       .  S
C913        C914   1.402       .  A
C913        C918   1.392   1_455  A
C913        F920   1.359       .  S
C914        C915   1.417   1_455  A
C915        C916   1.419       .  A
C915        F922   1.357       .  S
C916        C917   1.409       .  A
C916        F921   1.357       .  S
C917        C918   1.420       .  A
C918        F919   1.359       .  S
C923        C924   1.408       .  A
C923        C928   1.396       .  A
C923        F930   1.358       .  S
C924        C925   1.407   1_655  A
C925        C926   1.397       .  A
C925        F932   1.358       .  S
C926        C927   1.408       .  A
C926        F931   1.358       .  S
C927        C928   1.408   1_455  A
C928        F929   1.358       .  S
C933        C934   1.403       .  A
C933        C938   1.401       .  A
C933        F940   1.358       .  S
C934        C935   1.410       .  A
C935        C936   1.399       .  A
C935        F942   1.358       .  S
C936        C937   1.402       .  A
C936        F941   1.358       .  S
C937        C938   1.411       .  A
C938        F939   1.358       .  S
C943        C944   1.400       .  A
C943        C948   1.410       .  A
C943        F950   1.357       .  S
C944        C945   1.409       .  A
C945        C946   1.403       .  A
C945        F952   1.358       .  S
C946        C947   1.408       .  A
C946        F951   1.358       .  S
C947        C948   1.421       .  A
C948        F949   1.358       .  S
C953        C954   1.399       .  A
C953        C958   1.400       .  A
C953        F960   1.358       .  S
C954        C955   1.403       .  A
C955        C956   1.398       .  A
C955        F962   1.358       .  S
C956        C957   1.409       .  A
C956        F961   1.358       .  S
C957        C958   1.416       .  A
C958        F959   1.358       .  S
C963        C964   1.401       .  A
C963        C968   1.399       .  A
C963        F970   1.358       .  S
C964        C965   1.413       .  A
C965        C966   1.402       .  A
C965        F972   1.358       .  S
C966        C967   1.403       .  A
C966        F971   1.358       .  S
C967        C968   1.412       .  A
C968        F969   1.358       .  S
C973        C974   1.409   1_565  A
C973        C978   1.403       .  A
C973        F980   1.359       .  S
C974        C975   1.406       .  A
C975        C976   1.415   1_545  A
C975        F982   1.357       .  S
C976        C977   1.413       .  A
C976        F981   1.357       .  S
C977        C978   1.406       .  A
C978        F979   1.359       .  S
C983        C988   1.400   1_545  A
C983        F990   1.358       .  S
C984        C985   1.401   1_545  A
C985        F992   1.358       .  S
C986        C987   1.412   1_554  A
C987        C988   1.411       .  A
C988        F989   1.358   1_565  S
C993        C994   1.420       .  A
C993        C998   1.405       .  A
C993       F1000   1.358       .  S
C994        C995   1.412       .  A
C995        C996   1.410       .  A
C995       F1002   1.357       .  S
C996        C997   1.410       .  A
C996       F1001   1.358       .  S
C997        C998   1.401       .  A
C998        F999   1.358       .  S
C1003      C1008   1.400       .  A
C1003      F1010   1.358       .  S
C1004      C1005   1.404       .  A
C1005      C1006   1.396       .  A
C1005      F1012   1.358       .  S
C1006      F1011   1.358       .  S
C1007      C1008   1.413       .  A
C1008      F1009   1.358       .  S
C1013      C1014   1.400       .  A
C1013      C1018   1.387   1_565  A
C1013      F1020   1.358       .  S
C1014      C1015   1.404   1_565  A
C1015      C1016   1.384       .  A
C1015      F1022   1.359       .  S
C1016      C1017   1.399       .  A
C1016      F1021   1.359       .  S
C1017      C1018   1.399       .  A
C1018      F1019   1.357       .  S
C1023      C1024   1.399       .  A
C1023      C1028   1.396       .  A
C1023      F1030   1.358       .  S
C1024      C1025   1.414       .  A
C1025      C1026   1.410       .  A
C1025      F1032   1.357       .  S
C1026      C1027   1.403       .  A
C1026      F1031   1.357       .  S
C1027      C1028   1.411       .  A
C1028      F1029   1.359       .  S
C1033      C1034   1.421   1_565  A
C1033      C1038   1.403       .  A
C1033      F1040   1.358       .  S
C1034      C1035   1.408       .  A
C1035      C1036   1.413   1_545  A
C1035      F1042   1.357       .  S
C1036      C1037   1.416       .  A
C1036      F1041   1.358       .  S
C1037      C1038   1.402       .  A
C1038      F1039   1.358       .  S
C1043      C1044   1.409   1_554  A
C1043      F1050   1.358       .  S
C1044      C1045   1.416   1_545  A
C1045      C1046   1.398       .  A
C1045      F1052   1.358       .  S
C1046      F1051   1.358       .  S
C1047      C1048   1.403       .  A
C1048      F1049   1.359       .  S
C1053      C1054   1.408       .  A
C1053      C1058   1.393       .  A
C1053      F1060   1.358       .  S
C1054      C1055   1.404       .  A
C1055      C1056   1.385       .  A
C1055      F1062   1.359       .  S
C1056      C1057   1.404       .  A
C1056      F1061   1.359   1_565  S
C1057      C1058   1.402       .  A
C1058      F1059   1.358       .  S
C1063      C1064   1.416       .  A
C1063      C1068   1.411       .  A
C1063      F1070   1.358       .  S
C1064      C1065   1.402       .  A
C1065      C1066   1.404       .  A
C1065      F1072   1.358       .  S
C1066      C1067   1.416       .  A
C1066      F1071   1.358       .  S
C1067      C1068   1.407       .  A
C1068      F1069   1.357       .  S
C1073      C1074   1.413       .  A
C1073      C1078   1.395       .  A
C1073      F1080   1.358       .  S
C1075      C1076   1.399       .  A
C1075      F1082   1.358       .  S
C1076      C1077   1.403       .  A
C1076      F1081   1.358       .  S
C1078      F1079   1.358       .  S
C1083      C1084   1.401       .  A
C1083      C1088   1.404       .  A
C1083      F1090   1.358       .  S
C1084      C1085   1.413       .  A
C1085      C1086   1.406       .  A
C1085      F1092   1.358       .  S
C1086      C1087   1.407       .  A
C1086      F1091   1.358       .  S
C1087      C1088   1.419       .  A
C1088      F1089   1.358       .  S
C1093      C1094   1.402       .  A
C1093      C1098   1.389       .  A
C1093      F1100   1.359       .  S
C1094      C1095   1.400       .  A
C1095      C1096   1.399       .  A
C1095      F1102   1.358       .  S
C1096      C1097   1.414       .  A
C1096      F1101   1.358       .  S
C1097      C1098   1.408       .  A
C1098      F1099   1.358       .  S
C1103      C1104   1.394       .  A
C1103      C1108   1.386   1_655  A
C1103      F1110   1.359       .  S
C1104      C1105   1.402       .  A
C1105      C1106   1.393       .  A
C1105      F1112   1.358       .  S
C1106      C1107   1.404       .  A
C1106      F1111   1.358       .  S
C1107      C1108   1.407   1_655  A
C1108      F1109   1.359       .  S
C1113      C1114   1.407       .  A
C1113      C1118   1.398       .  A
C1113      F1120   1.359       .  S
C1114      C1115   1.405       .  A
C1115      C1116   1.408       .  A
C1115      F1122   1.357       .  S
C1116      C1117   1.410       .  A
C1116      F1121   1.357       .  S
C1117      C1118   1.402       .  A
C1118      F1119   1.358       .  S
C1123      C1124   1.411       .  A
C1123      C1128   1.408   1_455  A
C1123      F1130   1.358       .  S
C1124      C1125   1.421   1_455  A
C1125      C1126   1.406       .  A
C1125      F1132   1.358       .  S
C1126      C1127   1.400       .  A
C1126      F1131   1.357       .  S
C1127      C1128   1.410       .  A
C1128      F1129   1.358       .  S
C1133      C1134   1.403       .  A
C1133      C1138   1.401       .  A
C1133      F1140   1.358       .  S
C1134      C1135   1.403   1_655  A
C1135      C1136   1.394       .  A
C1135      F1142   1.359       .  S
C1136      C1137   1.410       .  A
C1136      F1141   1.358       .  S
C1137      C1138   1.413   1_455  A
C1138      F1139   1.358       .  S
C1143      C1144   1.402       .  A
C1143      C1148   1.397       .  A
C1143      F1150   1.358   1_554  S
C1144      C1145   1.401       .  A
C1145      C1146   1.385       .  A
C1145      F1152   1.359       .  S
C1146      C1147   1.401       .  A
C1146      F1151   1.358   1_655  S
C1147      C1148   1.406       .  A
C1148      F1149   1.358   1_554  S
C1153      C1154   1.403       .  A
C1153      C1158   1.407       .  A
C1153      F1160   1.357       .  S
C1154      C1155   1.415       .  A
C1155      C1156   1.404       .  A
C1155      F1162   1.358       .  S
C1156      C1157   1.405       .  A
C1156      F1161   1.357       .  S
C1157      C1158   1.419       .  A
C1158      F1159   1.358       .  S
C1163      C1164   1.407       .  A
C1163      C1168   1.393       .  A
C1163      F1170   1.358       .  S
C1164      C1165   1.410       .  A
C1165      C1166   1.398       .  A
C1165      F1172   1.358       .  S
C1166      C1167   1.403       .  A
C1166      F1171   1.357       .  S
C1167      C1168   1.405       .  A
C1168      F1169   1.359       .  S
C1173      C1174   1.404       .  A
C1173      C1178   1.400       .  A
C1173      F1180   1.358       .  S
C1174      C1175   1.411       .  A
C1175      C1176   1.404       .  A
C1175      F1182   1.358       .  S
C1176      C1177   1.405       .  A
C1176      F1181   1.358       .  S
C1177      C1178   1.409       .  A
C1178      F1179   1.358       .  S
C1183      C1184   1.401       .  A
C1183      C1188   1.393       .  A
C1184      C1185   1.399       .  A
C1185      C1186   1.384       .  A
C1185      F1192   1.359       .  S
C1186      C1187   1.399       .  A
C1186      F1191   1.359       .  S
C1187      C1188   1.400       .  A
C1193      C1194   1.405       .  A
C1193      C1198   1.397       .  A
C1193      F1200   1.359       .  S
C1194      C1195   1.416       .  A
C1195      C1196   1.415       .  A
C1195      F1202   1.357       .  S
C1196      C1197   1.406       .  A
C1196      F1201   1.357       .  S
C1197      C1198   1.406       .  A
C1198      F1199   1.353       .  S
C1203      C1204   1.400       .  A
C1203      C1208   1.397       .  A
C1203      F1210   1.358       .  S
C1204      C1205   1.408       .  A
C1205      C1206   1.404       .  A
C1205      F1212   1.358       .  S
C1206      C1207   1.404       .  A
C1206      F1211   1.357       .  S
C1207      C1208   1.411       .  A
C1208      F1209   1.358       .  S
C1213      C1214   1.409       .  A
C1213      C1218   1.391       .  A
C1213      F1220   1.359       .  S
C1214      C1215   1.406       .  A
C1215      C1216   1.411       .  A
C1215      F1222   1.357       .  S
C1216      C1217   1.414       .  A
C1216      F1221   1.357       .  S
C1217      C1218   1.405       .  A
C1218      F1219   1.359       .  S
C1223      C1224   1.419       .  A
C1223      C1228   1.408       .  A
C1223      F1230   1.358       .  S
C1224      C1225   1.405       .  A
C1225      C1226   1.405       .  A
C1225      F1232   1.358       .  S
C1226      C1227   1.416       .  A
C1226      F1231   1.358       .  S
C1227      C1228   1.403       .  A
C1228      F1229   1.357       .  S
C1233      C1234   1.415       .  A
C1233      C1238   1.397       .  A
C1233      F1240   1.358       .  S
C1234      C1235   1.409       .  A
C1235      C1236   1.401       .  A
C1235      F1242   1.358       .  S
C1236      C1237   1.407       .  A
C1236      F1241   1.358       .  S
C1237      C1238   1.403       .  A
C1238      F1239   1.359       .  S
C1243      C1244   1.408       .  A
C1243      C1248   1.383       .  A
C1243      F1250   1.359       .  S
C1244      C1245   1.406       .  A
C1245      C1246   1.382       .  A
C1245      F1252   1.359       .  S
C1246      C1247   1.395       .  A
C1246      F1251   1.358       .  S
C1247      C1248   1.394       .  A
C1248      F1249   1.357       .  S
C1253      C1254   1.421       .  A
C1253      C1258   1.409       .  A
C1253      F1260   1.358       .  S
C1254      C1255   1.408       .  A
C1255      C1256   1.408       .  A
C1255      F1262   1.358       .  S
C1256      C1257   1.418       .  A
C1256      F1261   1.358       .  S
C1257      C1258   1.406       .  A
C1258      F1259   1.358       .  S
C1263      C1264   1.406       .  A
C1263      C1268   1.398       .  A
C1263      F1270   1.358       .  S
C1264      C1265   1.402       .  A
C1265      C1266   1.399       .  A
C1265      F1272   1.358       .  S
C1266      C1267   1.415       .  A
C1266      F1271   1.358       .  S
C1267      C1268   1.409       .  A
C1268      F1269   1.358       .  S
